REMARK  6 active torsions:
REMARK  status: ('A' for Active; 'I' for Inactive)
REMARK    1  A    between atoms: C3_3  and  C14_22 
REMARK       I    between atoms: N1_6  and  C5_7 
REMARK    2  A    between atoms: C5_7  and  C6_9 
REMARK    3  A    between atoms: C6_9  and  N2_10 
REMARK    4  A    between atoms: C6_9  and  C11_19 
REMARK       I    between atoms: N2_10  and  C7_11 
REMARK    5  A    between atoms: C7_11  and  C8_13 
REMARK    6  A    between atoms: C14_22  and  O5_24 
ROOT
HETATM    1  C6  UNL     1       0.434   0.234   0.745  1.00  0.00     0.175 C 
ENDROOT
BRANCH   1   2
HETATM    2  C5  UNL     1      -0.147  -0.219  -0.617  1.00  0.00     0.230 C 
HETATM    3  N1  UNL     1      -1.461  -0.630  -0.634  1.00  0.00    -0.181 NA
HETATM    4  C2  UNL     1      -2.168  -1.101  -1.847  1.00  0.00     0.093 C 
HETATM    5  C4  UNL     1      -2.497   0.175  -0.244  1.00  0.00     0.222 C 
HETATM    6  C1  UNL     1      -2.189  -2.616  -1.913  1.00  0.00     0.029 C 
HETATM    7  C3  UNL     1      -3.434  -0.416  -1.296  1.00  0.00     0.188 C 
HETATM    8  O1  UNL     1      -2.607   0.956   0.672  1.00  0.00    -0.278 OA
HETATM    9  O2  UNL     1       0.552  -0.224  -1.638  1.00  0.00    -0.277 OA
BRANCH   7  10
HETATM   10  C14 UNL     1      -4.055   0.721  -2.114  1.00  0.00     0.154 C 
HETATM   11  O4  UNL     1      -3.482   1.587  -2.763  1.00  0.00    -0.649 OA
BRANCH  10  12
HETATM   12  O5  UNL     1      -5.410   0.702  -2.120  1.00  0.00    -0.776 OA
HETATM   13  H17 UNL     1      -5.662   1.484  -2.659  1.00  0.00     0.167 HD
ENDBRANCH  10  12
ENDBRANCH   7  10
ENDBRANCH   1   2
BRANCH   1  14
HETATM   14  N2  UNL     1       1.731   0.851   0.432  1.00  0.00    -0.343 N 
HETATM   15  C7  UNL     1       2.335   1.763   1.272  1.00  0.00     0.269 C 
HETATM   16  O3  UNL     1       1.850   2.050   2.363  1.00  0.00    -0.266 OA
HETATM   17  H7  UNL     1       2.054   0.738  -0.522  1.00  0.00     0.163 HD
BRANCH  15  18
HETATM   18  C8  UNL     1       3.584   2.369   0.774  1.00  0.00     0.107 A 
HETATM   19  C9  UNL     1       4.306   1.966  -0.340  1.00  0.00     0.086 A 
HETATM   20  S1  UNL     1       5.701   2.945  -0.553  1.00  0.00    -0.094 SA
HETATM   21  C10 UNL     1       5.266   3.830   0.844  1.00  0.00     0.138 A 
HETATM   22  N3  UNL     1       4.165   3.449   1.448  1.00  0.00    -0.355 N 
ATOM     23  H3  UNL     1       3.786   3.880   2.291  1.00  0.00     0.166 HD
ENDBRANCH  15  18
ENDBRANCH   1  14
BRANCH   1  24
HETATM   24  C11 UNL     1       0.609  -0.917   1.766  1.00  0.00     0.009 C 
HETATM   25  C12 UNL     1      -0.710  -1.347   2.409  1.00  0.00     0.012 C 
HETATM   26  C13 UNL     1       1.330  -2.135   1.178  1.00  0.00     0.012 C 
ENDBRANCH   1  24
TORSDOF 6
