REMARK  3 active torsions:
REMARK  status: ('A' for Active; 'I' for Inactive)
REMARK    1  A    between atoms: C6_9  and  N2_10 
REMARK       I    between atoms: N2_10  and  C7_11 
REMARK    2  A    between atoms: C7_11  and  C8_13 
REMARK    3  A    between atoms: N3_15  and  C10_16 
ROOT
HETATM    1  N2  UNL     1      -0.577  -0.908   0.500  1.00  0.00    -0.343 N 
HETATM    2  C7  UNL     1       0.472  -1.806   0.440  1.00  0.00     0.262 C 
HETATM    3  O3  UNL     1       0.260  -3.017   0.449  1.00  0.00    -0.267 OA
HETATM    4  H7  UNL     1      -0.371   0.087   0.453  1.00  0.00     0.163 HD
ENDROOT
BRANCH   1   5
HETATM    5  C6  UNL     1      -1.972  -1.364   0.537  1.00  0.00     0.185 C 
HETATM    6  C5  UNL     1      -2.954  -0.362   1.176  1.00  0.00     0.230 C 
HETATM    7  N1  UNL     1      -3.068   0.879   0.573  1.00  0.00    -0.180 NA
HETATM    8  O2  UNL     1      -3.720  -0.706   2.079  1.00  0.00    -0.277 OA
HETATM    9  C2  UNL     1      -4.230   1.169  -0.337  1.00  0.00     0.092 C 
HETATM   10  C4  UNL     1      -2.186   1.245  -0.414  1.00  0.00     0.222 C 
HETATM   11  C1  UNL     1      -5.496   0.365  -0.131  1.00  0.00     0.029 C 
HETATM   12  C3  UNL     1      -3.231   0.948  -1.499  1.00  0.00     0.152 C 
HETATM   13  S2  UNL     1      -3.113  -0.740  -2.194  1.00  0.00    -0.146 SA
HETATM   14  C16 UNL     1      -2.476  -1.857  -0.854  1.00  0.00     0.075 C 
HETATM   15  C17 UNL     1      -3.502  -2.988  -0.676  1.00  0.00     0.024 C 
HETATM   16  O1  UNL     1      -1.025   1.582  -0.353  1.00  0.00    -0.278 OA
ENDBRANCH   1   5
BRANCH   2  17
HETATM   17  C8  UNL     1       1.808  -1.171   0.367  1.00  0.00     0.106 A 
HETATM   18  C9  UNL     1       2.180   0.112   0.167  1.00  0.00     0.131 A 
HETATM   19  N3  UNL     1       3.483  -0.075   0.212  1.00  0.00    -0.291 N 
HETATM   20  S1  UNL     1       3.425  -1.715   0.404  1.00  0.00    -0.001 SA
BRANCH  19  21
HETATM   21  C10 UNL     1       4.597   0.754  -0.012  1.00  0.00     0.045 A 
HETATM   22  C11 UNL     1       4.428   2.126  -0.276  1.00  0.00     0.030 A 
HETATM   23  C12 UNL     1       5.522   2.969  -0.505  1.00  0.00     0.002 A 
HETATM   24  C13 UNL     1       6.814   2.457  -0.469  1.00  0.00     0.000 A 
HETATM   25  C14 UNL     1       7.012   1.106  -0.202  1.00  0.00     0.002 A 
HETATM   26  C15 UNL     1       5.914   0.267   0.023  1.00  0.00     0.030 A 
ENDBRANCH  19  21
ENDBRANCH   2  17
TORSDOF 3
