MODEL 1
REMARK VINA RESULT:    -7.108      0.000      0.000
REMARK INTER + INTRA:          -9.918
REMARK INTER:                  -9.406
REMARK INTRA:                  -0.512
REMARK UNBOUND:                -0.524
REMARK  6 active torsions:
REMARK  status: ('A' for Active; 'I' for Inactive)
REMARK    1  A    between atoms: C3_3  and  C14_22 
REMARK       I    between atoms: N1_6  and  C5_7 
REMARK    2  A    between atoms: C5_7  and  C6_9 
REMARK    3  A    between atoms: C6_9  and  N2_10 
REMARK    4  A    between atoms: C6_9  and  C11_19 
REMARK       I    between atoms: N2_10  and  C7_11 
REMARK    5  A    between atoms: C7_11  and  C8_13 
REMARK    6  A    between atoms: C14_22  and  O5_24 
ROOT
HETATM    1  C6  UNL     1      13.677  14.066  15.456  1.00  0.00     0.175 C 
ENDROOT
BRANCH   1   2
HETATM    2  C5  UNL     1      13.309  14.737  16.803  1.00  0.00     0.230 C 
HETATM    3  N1  UNL     1      14.347  15.062  17.647  1.00  0.00    -0.181 NA
HETATM    4  C2  UNL     1      14.170  15.699  18.972  1.00  0.00     0.093 C 
HETATM    5  C4  UNL     1      15.362  15.906  17.286  1.00  0.00     0.222 C 
HETATM    6  C1  UNL     1      14.217  14.668  20.084  1.00  0.00     0.029 C 
HETATM    7  C3  UNL     1      15.471  16.479  18.698  1.00  0.00     0.188 C 
HETATM    8  O1  UNL     1      15.979  16.025  16.254  1.00  0.00    -0.278 OA
HETATM    9  O2  UNL     1      12.129  14.952  17.106  1.00  0.00    -0.277 OA
BRANCH   7  10
HETATM   10  C14 UNL     1      15.397  18.008  18.630  1.00  0.00     0.154 C 
HETATM   11  O4  UNL     1      14.455  18.704  18.273  1.00  0.00    -0.649 OA
BRANCH  10  12
HETATM   12  O5  UNL     1      16.525  18.621  19.063  1.00  0.00    -0.776 OA
HETATM   13  H17 UNL     1      17.207  17.914  19.049  1.00  0.00     0.167 HD
ENDBRANCH  10  12
ENDBRANCH   7  10
ENDBRANCH   1   2
BRANCH   1  14
HETATM   14  N2  UNL     1      12.394  13.767  14.804  1.00  0.00    -0.343 N 
HETATM   15  C7  UNL     1      12.027  14.338  13.604  1.00  0.00     0.269 C 
HETATM   16  O3  UNL     1      12.790  15.073  12.982  1.00  0.00    -0.266 OA
HETATM   17  H7  UNL     1      11.708  13.291  15.379  1.00  0.00     0.163 HD
BRANCH  15  18
HETATM   18  C8  UNL     1      10.669  14.017  13.126  1.00  0.00     0.107 A 
HETATM   19  C9  UNL     1       9.573  13.702  13.916  1.00  0.00     0.086 A 
HETATM   20  S1  UNL     1       8.189  13.391  12.948  1.00  0.00    -0.094 SA
HETATM   21  C10 UNL     1       9.129  13.682  11.550  1.00  0.00     0.138 A 
HETATM   22  N3  UNL     1      10.387  13.993  11.756  1.00  0.00    -0.355 N 
ATOM     23  H3  UNL     1      11.065  14.189  11.019  1.00  0.00     0.166 HD
ENDBRANCH  15  18
ENDBRANCH   1  14
BRANCH   1  24
HETATM   24  C11 UNL     1      14.526  12.780  15.608  1.00  0.00     0.009 C 
HETATM   25  C12 UNL     1      13.740  11.508  15.289  1.00  0.00     0.012 C 
HETATM   26  C13 UNL     1      15.821  12.818  14.789  1.00  0.00     0.012 C 
ENDBRANCH   1  24
TORSDOF 6
ENDMDL
MODEL 2
REMARK VINA RESULT:    -6.994      3.526      5.575
REMARK INTER + INTRA:          -9.767
REMARK INTER:                  -9.686
REMARK INTRA:                  -0.081
REMARK UNBOUND:                -0.524
REMARK  6 active torsions:
REMARK  status: ('A' for Active; 'I' for Inactive)
REMARK    1  A    between atoms: C3_3  and  C14_22 
REMARK       I    between atoms: N1_6  and  C5_7 
REMARK    2  A    between atoms: C5_7  and  C6_9 
REMARK    3  A    between atoms: C6_9  and  N2_10 
REMARK    4  A    between atoms: C6_9  and  C11_19 
REMARK       I    between atoms: N2_10  and  C7_11 
REMARK    5  A    between atoms: C7_11  and  C8_13 
REMARK    6  A    between atoms: C14_22  and  O5_24 
ROOT
HETATM    1  C6  UNL     1      11.348  13.903  12.995  1.00  0.00     0.175 C 
ENDROOT
BRANCH   1   2
HETATM    2  C5  UNL     1      12.552  14.044  13.959  1.00  0.00     0.230 C 
HETATM    3  N1  UNL     1      13.064  12.886  14.498  1.00  0.00    -0.181 NA
HETATM    4  C2  UNL     1      14.205  12.842  15.441  1.00  0.00     0.093 C 
HETATM    5  C4  UNL     1      13.552  11.861  13.733  1.00  0.00     0.222 C 
HETATM    6  C1  UNL     1      13.725  12.736  16.875  1.00  0.00     0.029 C 
HETATM    7  C3  UNL     1      14.636  11.530  14.757  1.00  0.00     0.188 C 
HETATM    8  O1  UNL     1      13.159  11.372  12.700  1.00  0.00    -0.278 OA
HETATM    9  O2  UNL     1      13.017  15.156  14.239  1.00  0.00    -0.277 OA
BRANCH   7  10
HETATM   10  C14 UNL     1      15.998  11.492  14.057  1.00  0.00     0.154 C 
HETATM   11  O4  UNL     1      16.344  10.796  13.111  1.00  0.00    -0.649 OA
BRANCH  10  12
HETATM   12  O5  UNL     1      16.886  12.386  14.557  1.00  0.00    -0.776 OA
HETATM   13  H17 UNL     1      16.703  13.214  14.062  1.00  0.00     0.167 HD
ENDBRANCH  10  12
ENDBRANCH   7  10
ENDBRANCH   1   2
BRANCH   1  14
HETATM   14  N2  UNL     1      11.480  15.011  12.038  1.00  0.00    -0.343 N 
HETATM   15  C7  UNL     1      12.344  14.957  10.964  1.00  0.00     0.269 C 
HETATM   16  O3  UNL     1      12.995  13.946  10.713  1.00  0.00    -0.266 OA
HETATM   17  H7  UNL     1      11.069  15.892  12.323  1.00  0.00     0.163 HD
BRANCH  15  18
HETATM   18  C8  UNL     1      12.439  16.184  10.151  1.00  0.00     0.107 A 
HETATM   19  C9  UNL     1      11.431  17.115   9.948  1.00  0.00     0.086 A 
HETATM   20  S1  UNL     1      11.969  18.387   8.927  1.00  0.00    -0.094 SA
HETATM   21  C10 UNL     1      13.493  17.621   8.813  1.00  0.00     0.138 A 
HETATM   22  N3  UNL     1      13.625  16.497   9.477  1.00  0.00    -0.355 N 
ATOM     23  H3  UNL     1      14.472  15.930   9.498  1.00  0.00     0.166 HD
ENDBRANCH  15  18
ENDBRANCH   1  14
BRANCH   1  24
HETATM   24  C11 UNL     1       9.971  13.954  13.701  1.00  0.00     0.009 C 
HETATM   25  C12 UNL     1       9.459  15.380  13.905  1.00  0.00     0.012 C 
HETATM   26  C13 UNL     1       8.905  13.108  12.997  1.00  0.00     0.012 C 
ENDBRANCH   1  24
TORSDOF 6
ENDMDL
MODEL 3
REMARK VINA RESULT:    -6.877      3.204      6.482
REMARK INTER + INTRA:          -9.613
REMARK INTER:                  -9.179
REMARK INTRA:                  -0.434
REMARK UNBOUND:                -0.524
REMARK  6 active torsions:
REMARK  status: ('A' for Active; 'I' for Inactive)
REMARK    1  A    between atoms: C3_3  and  C14_22 
REMARK       I    between atoms: N1_6  and  C5_7 
REMARK    2  A    between atoms: C5_7  and  C6_9 
REMARK    3  A    between atoms: C6_9  and  N2_10 
REMARK    4  A    between atoms: C6_9  and  C11_19 
REMARK       I    between atoms: N2_10  and  C7_11 
REMARK    5  A    between atoms: C7_11  and  C8_13 
REMARK    6  A    between atoms: C14_22  and  O5_24 
ROOT
HETATM    1  C6  UNL     1      13.309  14.262  15.721  1.00  0.00     0.175 C 
ENDROOT
BRANCH   1   2
HETATM    2  C5  UNL     1      11.892  14.780  15.371  1.00  0.00     0.230 C 
HETATM    3  N1  UNL     1      10.826  13.989  15.737  1.00  0.00    -0.181 NA
HETATM    4  C2  UNL     1       9.409  14.330  15.472  1.00  0.00     0.093 C 
HETATM    5  C4  UNL     1      10.580  13.624  17.033  1.00  0.00     0.222 C 
HETATM    6  C1  UNL     1       8.900  13.621  14.232  1.00  0.00     0.029 C 
HETATM    7  C3  UNL     1       9.067  13.682  16.828  1.00  0.00     0.188 C 
HETATM    8  O1  UNL     1      11.320  13.282  17.926  1.00  0.00    -0.278 OA
HETATM    9  O2  UNL     1      11.735  15.852  14.774  1.00  0.00    -0.277 OA
BRANCH   7  10
HETATM   10  C14 UNL     1       8.444  14.564  17.914  1.00  0.00     0.154 C 
HETATM   11  O4  UNL     1       7.650  15.486  17.777  1.00  0.00    -0.649 OA
BRANCH  10  12
HETATM   12  O5  UNL     1       8.821  14.219  19.169  1.00  0.00    -0.776 OA
HETATM   13  H17 UNL     1       9.457  14.920  19.434  1.00  0.00     0.167 HD
ENDBRANCH  10  12
ENDBRANCH   7  10
ENDBRANCH   1   2
BRANCH   1  14
HETATM   14  N2  UNL     1      14.012  15.412  16.308  1.00  0.00    -0.343 N 
HETATM   15  C7  UNL     1      14.369  15.456  17.640  1.00  0.00     0.269 C 
HETATM   16  O3  UNL     1      14.179  14.500  18.387  1.00  0.00    -0.266 OA
HETATM   17  H7  UNL     1      14.031  16.252  15.742  1.00  0.00     0.163 HD
BRANCH  15  18
HETATM   18  C8  UNL     1      14.979  16.717  18.102  1.00  0.00     0.107 A 
HETATM   19  C9  UNL     1      14.699  17.989  17.625  1.00  0.00     0.086 A 
HETATM   20  S1  UNL     1      15.642  19.170  18.439  1.00  0.00    -0.094 SA
HETATM   21  C10 UNL     1      16.365  17.925  19.362  1.00  0.00     0.138 A 
HETATM   22  N3  UNL     1      15.954  16.705  19.106  1.00  0.00    -0.355 N 
ATOM     23  H3  UNL     1      16.297  15.866  19.573  1.00  0.00     0.166 HD
ENDBRANCH  15  18
ENDBRANCH   1  14
BRANCH   1  24
HETATM   24  C11 UNL     1      14.091  13.706  14.506  1.00  0.00     0.009 C 
HETATM   25  C12 UNL     1      15.371  12.972  14.908  1.00  0.00     0.012 C 
HETATM   26  C13 UNL     1      13.235  12.813  13.600  1.00  0.00     0.012 C 
ENDBRANCH   1  24
TORSDOF 6
ENDMDL
MODEL 4
REMARK VINA RESULT:    -6.839      4.084      6.116
REMARK INTER + INTRA:          -9.563
REMARK INTER:                  -9.148
REMARK INTRA:                  -0.415
REMARK UNBOUND:                -0.524
REMARK  6 active torsions:
REMARK  status: ('A' for Active; 'I' for Inactive)
REMARK    1  A    between atoms: C3_3  and  C14_22 
REMARK       I    between atoms: N1_6  and  C5_7 
REMARK    2  A    between atoms: C5_7  and  C6_9 
REMARK    3  A    between atoms: C6_9  and  N2_10 
REMARK    4  A    between atoms: C6_9  and  C11_19 
REMARK       I    between atoms: N2_10  and  C7_11 
REMARK    5  A    between atoms: C7_11  and  C8_13 
REMARK    6  A    between atoms: C14_22  and  O5_24 
ROOT
HETATM    1  C6  UNL     1      12.564  14.883  12.625  1.00  0.00     0.175 C 
ENDROOT
BRANCH   1   2
HETATM    2  C5  UNL     1      13.283  14.582  13.963  1.00  0.00     0.230 C 
HETATM    3  N1  UNL     1      13.087  13.336  14.514  1.00  0.00    -0.181 NA
HETATM    4  C2  UNL     1      13.692  12.888  15.789  1.00  0.00     0.093 C 
HETATM    5  C4  UNL     1      13.406  12.175  13.862  1.00  0.00     0.222 C 
HETATM    6  C1  UNL     1      12.711  13.027  16.938  1.00  0.00     0.029 C 
HETATM    7  C3  UNL     1      13.824  11.487  15.160  1.00  0.00     0.188 C 
HETATM    8  O1  UNL     1      13.273  11.840  12.708  1.00  0.00    -0.278 OA
HETATM    9  O2  UNL     1      13.988  15.436  14.514  1.00  0.00    -0.277 OA
BRANCH   7  10
HETATM   10  C14 UNL     1      15.229  10.900  14.990  1.00  0.00     0.154 C 
HETATM   11  O4  UNL     1      16.163  11.350  14.339  1.00  0.00    -0.649 OA
BRANCH  10  12
HETATM   12  O5  UNL     1      15.425   9.760  15.696  1.00  0.00    -0.776 OA
HETATM   13  H17 UNL     1      15.768  10.068  16.564  1.00  0.00     0.167 HD
ENDBRANCH  10  12
ENDBRANCH   7  10
ENDBRANCH   1   2
BRANCH   1  14
HETATM   14  N2  UNL     1      13.127  16.158  12.156  1.00  0.00    -0.343 N 
HETATM   15  C7  UNL     1      14.164  16.217  11.249  1.00  0.00     0.269 C 
HETATM   16  O3  UNL     1      14.622  15.202  10.731  1.00  0.00    -0.266 OA
HETATM   17  H7  UNL     1      12.862  16.979  12.689  1.00  0.00     0.163 HD
BRANCH  15  18
HETATM   18  C8  UNL     1      14.686  17.564  10.953  1.00  0.00     0.107 A 
HETATM   19  C9  UNL     1      14.164  18.766  11.409  1.00  0.00     0.086 A 
HETATM   20  S1  UNL     1      15.078  20.094  10.817  1.00  0.00    -0.094 SA
HETATM   21  C10 UNL     1      16.096  18.997   9.990  1.00  0.00     0.138 A 
HETATM   22  N3  UNL     1      15.804  17.725  10.126  1.00  0.00    -0.355 N 
ATOM     23  H3  UNL     1      16.319  16.960   9.690  1.00  0.00     0.166 HD
ENDBRANCH  15  18
ENDBRANCH   1  14
BRANCH   1  24
HETATM   24  C11 UNL     1      11.024  14.979  12.749  1.00  0.00     0.009 C 
HETATM   25  C12 UNL     1      10.443  16.193  12.023  1.00  0.00     0.012 C 
HETATM   26  C13 UNL     1      10.306  13.703  12.297  1.00  0.00     0.012 C 
ENDBRANCH   1  24
TORSDOF 6
ENDMDL
MODEL 5
REMARK VINA RESULT:    -6.839      3.067      6.549
REMARK INTER + INTRA:          -9.562
REMARK INTER:                  -9.520
REMARK INTRA:                  -0.042
REMARK UNBOUND:                -0.524
REMARK  6 active torsions:
REMARK  status: ('A' for Active; 'I' for Inactive)
REMARK    1  A    between atoms: C3_3  and  C14_22 
REMARK       I    between atoms: N1_6  and  C5_7 
REMARK    2  A    between atoms: C5_7  and  C6_9 
REMARK    3  A    between atoms: C6_9  and  N2_10 
REMARK    4  A    between atoms: C6_9  and  C11_19 
REMARK       I    between atoms: N2_10  and  C7_11 
REMARK    5  A    between atoms: C7_11  and  C8_13 
REMARK    6  A    between atoms: C14_22  and  O5_24 
ROOT
HETATM    1  C6  UNL     1      13.215  13.802  15.371  1.00  0.00     0.175 C 
ENDROOT
BRANCH   1   2
HETATM    2  C5  UNL     1      12.289  14.504  14.348  1.00  0.00     0.230 C 
HETATM    3  N1  UNL     1      10.987  14.063  14.273  1.00  0.00    -0.181 NA
HETATM    4  C2  UNL     1       9.974  14.617  13.346  1.00  0.00     0.093 C 
HETATM    5  C4  UNL     1      10.134  14.078  15.343  1.00  0.00     0.222 C 
HETATM    6  C1  UNL     1       9.838  13.754  12.106  1.00  0.00     0.029 C 
HETATM    7  C3  UNL     1       8.930  14.398  14.458  1.00  0.00     0.188 C 
HETATM    8  O1  UNL     1      10.304  13.813  16.510  1.00  0.00    -0.278 OA
HETATM    9  O2  UNL     1      12.714  15.411  13.621  1.00  0.00    -0.277 OA
BRANCH   7  10
HETATM   10  C14 UNL     1       8.204  15.625  15.020  1.00  0.00     0.154 C 
HETATM   11  O4  UNL     1       8.500  16.297  16.000  1.00  0.00    -0.649 OA
BRANCH  10  12
HETATM   12  O5  UNL     1       7.128  15.996  14.285  1.00  0.00    -0.776 OA
HETATM   13  H17 UNL     1       6.491  15.256  14.395  1.00  0.00     0.167 HD
ENDBRANCH  10  12
ENDBRANCH   7  10
ENDBRANCH   1   2
BRANCH   1  14
HETATM   14  N2  UNL     1      13.955  14.883  16.037  1.00  0.00    -0.343 N 
HETATM   15  C7  UNL     1      13.584  15.380  17.269  1.00  0.00     0.269 C 
HETATM   16  O3  UNL     1      12.656  14.889  17.905  1.00  0.00    -0.266 OA
HETATM   17  H7  UNL     1      14.615  15.388  15.456  1.00  0.00     0.163 HD
BRANCH  15  18
HETATM   18  C8  UNL     1      14.363  16.531  17.761  1.00  0.00     0.107 A 
HETATM   19  C9  UNL     1      15.359  16.497  18.726  1.00  0.00     0.086 A 
HETATM   20  S1  UNL     1      16.000  18.067  19.000  1.00  0.00    -0.094 SA
HETATM   21  C10 UNL     1      14.914  18.690  17.835  1.00  0.00     0.138 A 
HETATM   22  N3  UNL     1      14.119  17.816  17.264  1.00  0.00    -0.355 N 
ATOM     23  H3  UNL     1      13.420  18.043  16.556  1.00  0.00     0.166 HD
ENDBRANCH  15  18
ENDBRANCH   1  14
BRANCH   1  24
HETATM   24  C11 UNL     1      14.193  12.783  14.735  1.00  0.00     0.009 C 
HETATM   25  C12 UNL     1      14.444  11.565  15.625  1.00  0.00     0.012 C 
HETATM   26  C13 UNL     1      13.762  12.332  13.335  1.00  0.00     0.012 C 
ENDBRANCH   1  24
TORSDOF 6
ENDMDL
MODEL 6
REMARK VINA RESULT:    -6.736      4.307      7.252
REMARK INTER + INTRA:          -9.427
REMARK INTER:                  -9.312
REMARK INTRA:                  -0.114
REMARK UNBOUND:                -0.524
REMARK  6 active torsions:
REMARK  status: ('A' for Active; 'I' for Inactive)
REMARK    1  A    between atoms: C3_3  and  C14_22 
REMARK       I    between atoms: N1_6  and  C5_7 
REMARK    2  A    between atoms: C5_7  and  C6_9 
REMARK    3  A    between atoms: C6_9  and  N2_10 
REMARK    4  A    between atoms: C6_9  and  C11_19 
REMARK       I    between atoms: N2_10  and  C7_11 
REMARK    5  A    between atoms: C7_11  and  C8_13 
REMARK    6  A    between atoms: C14_22  and  O5_24 
ROOT
HETATM    1  C6  UNL     1      12.401  14.693  13.317  1.00  0.00     0.175 C 
ENDROOT
BRANCH   1   2
HETATM    2  C5  UNL     1      11.024  14.320  13.918  1.00  0.00     0.230 C 
HETATM    3  N1  UNL     1       9.908  14.853  13.312  1.00  0.00    -0.181 NA
HETATM    4  C2  UNL     1       8.520  14.606  13.763  1.00  0.00     0.093 C 
HETATM    5  C4  UNL     1       9.604  14.640  11.994  1.00  0.00     0.222 C 
HETATM    6  C1  UNL     1       8.014  15.748  14.624  1.00  0.00     0.029 C 
HETATM    7  C3  UNL     1       8.104  14.623  12.279  1.00  0.00     0.188 C 
HETATM    8  O1  UNL     1      10.298  14.606  11.005  1.00  0.00    -0.278 OA
HETATM    9  O2  UNL     1      10.939  13.587  14.911  1.00  0.00    -0.277 OA
BRANCH   7  10
HETATM   10  C14 UNL     1       7.492  13.349  11.686  1.00  0.00     0.154 C 
HETATM   11  O4  UNL     1       7.102  13.160  10.540  1.00  0.00    -0.649 OA
BRANCH  10  12
HETATM   12  O5  UNL     1       7.430  12.321  12.566  1.00  0.00    -0.776 OA
HETATM   13  H17 UNL     1       7.312  12.756  13.439  1.00  0.00     0.167 HD
ENDBRANCH  10  12
ENDBRANCH   7  10
ENDBRANCH   1   2
BRANCH   1  14
HETATM   14  N2  UNL     1      13.342  13.695  13.845  1.00  0.00    -0.343 N 
HETATM   15  C7  UNL     1      13.637  12.529  13.170  1.00  0.00     0.269 C 
HETATM   16  O3  UNL     1      13.180  12.301  12.053  1.00  0.00    -0.266 OA
HETATM   17  H7  UNL     1      13.597  13.803  14.820  1.00  0.00     0.163 HD
BRANCH  15  18
HETATM   18  C8  UNL     1      14.521  11.582  13.874  1.00  0.00     0.107 A 
HETATM   19  C9  UNL     1      15.728  11.081  13.406  1.00  0.00     0.086 A 
HETATM   20  S1  UNL     1      16.425  10.002  14.546  1.00  0.00    -0.094 SA
HETATM   21  C10 UNL     1      15.085  10.259  15.577  1.00  0.00     0.138 A 
HETATM   22  N3  UNL     1      14.167  11.085  15.133  1.00  0.00    -0.355 N 
ATOM     23  H3  UNL     1      13.315  11.331  15.636  1.00  0.00     0.166 HD
ENDBRANCH  15  18
ENDBRANCH   1  14
BRANCH   1  24
HETATM   24  C11 UNL     1      12.871  16.126  13.667  1.00  0.00     0.009 C 
HETATM   25  C12 UNL     1      12.612  17.128  12.541  1.00  0.00     0.012 C 
HETATM   26  C13 UNL     1      12.279  16.646  14.981  1.00  0.00     0.012 C 
ENDBRANCH   1  24
TORSDOF 6
ENDMDL
MODEL 7
REMARK VINA RESULT:    -6.733      3.395      7.309
REMARK INTER + INTRA:          -9.421
REMARK INTER:                  -8.949
REMARK INTRA:                  -0.473
REMARK UNBOUND:                -0.524
REMARK  6 active torsions:
REMARK  status: ('A' for Active; 'I' for Inactive)
REMARK    1  A    between atoms: C3_3  and  C14_22 
REMARK       I    between atoms: N1_6  and  C5_7 
REMARK    2  A    between atoms: C5_7  and  C6_9 
REMARK    3  A    between atoms: C6_9  and  N2_10 
REMARK    4  A    between atoms: C6_9  and  C11_19 
REMARK       I    between atoms: N2_10  and  C7_11 
REMARK    5  A    between atoms: C7_11  and  C8_13 
REMARK    6  A    between atoms: C14_22  and  O5_24 
ROOT
HETATM    1  C6  UNL     1      11.668  13.796  13.729  1.00  0.00     0.175 C 
ENDROOT
BRANCH   1   2
HETATM    2  C5  UNL     1      10.875  15.047  13.276  1.00  0.00     0.230 C 
HETATM    3  N1  UNL     1       9.792  14.839  12.452  1.00  0.00    -0.181 NA
HETATM    4  C2  UNL     1       8.932  15.923  11.922  1.00  0.00     0.093 C 
HETATM    5  C4  UNL     1       8.726  14.057  12.807  1.00  0.00     0.222 C 
HETATM    6  C1  UNL     1       9.335  16.297  10.508  1.00  0.00     0.029 C 
HETATM    7  C3  UNL     1       7.739  14.958  12.067  1.00  0.00     0.188 C 
HETATM    8  O1  UNL     1       8.664  12.999  13.387  1.00  0.00    -0.278 OA
HETATM    9  O2  UNL     1      11.217  16.182  13.632  1.00  0.00    -0.277 OA
BRANCH   7  10
HETATM   10  C14 UNL     1       6.604  15.351  13.019  1.00  0.00     0.154 C 
HETATM   11  O4  UNL     1       6.674  16.011  14.048  1.00  0.00    -0.649 OA
BRANCH  10  12
HETATM   12  O5  UNL     1       5.385  14.924  12.609  1.00  0.00    -0.776 OA
HETATM   13  H17 UNL     1       5.224  14.108  13.133  1.00  0.00     0.167 HD
ENDBRANCH  10  12
ENDBRANCH   7  10
ENDBRANCH   1   2
BRANCH   1  14
HETATM   14  N2  UNL     1      12.440  14.226  14.904  1.00  0.00    -0.343 N 
HETATM   15  C7  UNL     1      12.008  13.996  16.194  1.00  0.00     0.269 C 
HETATM   16  O3  UNL     1      10.988  13.353  16.424  1.00  0.00    -0.266 OA
HETATM   17  H7  UNL     1      13.190  14.882  14.722  1.00  0.00     0.163 HD
BRANCH  15  18
HETATM   18  C8  UNL     1      12.841  14.574  17.265  1.00  0.00     0.107 A 
HETATM   19  C9  UNL     1      13.052  14.033  18.524  1.00  0.00     0.086 A 
HETATM   20  S1  UNL     1      14.085  15.039  19.458  1.00  0.00    -0.094 SA
HETATM   21  C10 UNL     1      14.177  16.128  18.142  1.00  0.00     0.138 A 
HETATM   22  N3  UNL     1      13.499  15.794  17.069  1.00  0.00    -0.355 N 
ATOM     23  H3  UNL     1      13.459  16.346  16.213  1.00  0.00     0.166 HD
ENDBRANCH  15  18
ENDBRANCH   1  14
BRANCH   1  24
HETATM   24  C11 UNL     1      12.606  13.221  12.640  1.00  0.00     0.009 C 
HETATM   25  C12 UNL     1      13.864  12.573  13.220  1.00  0.00     0.012 C 
HETATM   26  C13 UNL     1      11.899  12.243  11.695  1.00  0.00     0.012 C 
ENDBRANCH   1  24
TORSDOF 6
ENDMDL
MODEL 8
REMARK VINA RESULT:    -6.696      3.136      5.019
REMARK INTER + INTRA:          -9.373
REMARK INTER:                  -8.994
REMARK INTRA:                  -0.379
REMARK UNBOUND:                -0.524
REMARK  6 active torsions:
REMARK  status: ('A' for Active; 'I' for Inactive)
REMARK    1  A    between atoms: C3_3  and  C14_22 
REMARK       I    between atoms: N1_6  and  C5_7 
REMARK    2  A    between atoms: C5_7  and  C6_9 
REMARK    3  A    between atoms: C6_9  and  N2_10 
REMARK    4  A    between atoms: C6_9  and  C11_19 
REMARK       I    between atoms: N2_10  and  C7_11 
REMARK    5  A    between atoms: C7_11  and  C8_13 
REMARK    6  A    between atoms: C14_22  and  O5_24 
ROOT
HETATM    1  C6  UNL     1      10.641  14.177  13.100  1.00  0.00     0.175 C 
ENDROOT
BRANCH   1   2
HETATM    2  C5  UNL     1      10.831  14.610  14.575  1.00  0.00     0.230 C 
HETATM    3  N1  UNL     1      11.372  13.682  15.437  1.00  0.00    -0.181 NA
HETATM    4  C2  UNL     1      11.614  13.929  16.877  1.00  0.00     0.093 C 
HETATM    5  C4  UNL     1      12.604  13.118  15.244  1.00  0.00     0.222 C 
HETATM    6  C1  UNL     1      10.492  13.360  17.724  1.00  0.00     0.029 C 
HETATM    7  C3  UNL     1      12.885  13.068  16.745  1.00  0.00     0.188 C 
HETATM    8  O1  UNL     1      13.159  12.721  14.246  1.00  0.00    -0.278 OA
HETATM    9  O2  UNL     1      10.494  15.737  14.957  1.00  0.00    -0.277 OA
BRANCH   7  10
HETATM   10  C14 UNL     1      14.239  13.728  17.027  1.00  0.00     0.154 C 
HETATM   11  O4  UNL     1      14.494  14.618  17.829  1.00  0.00    -0.649 OA
BRANCH  10  12
HETATM   12  O5  UNL     1      15.255  13.204  16.301  1.00  0.00    -0.776 OA
HETATM   13  H17 UNL     1      16.020  13.791  16.493  1.00  0.00     0.167 HD
ENDBRANCH  10  12
ENDBRANCH   7  10
ENDBRANCH   1   2
BRANCH   1  14
HETATM   14  N2  UNL     1      11.505  15.070  12.315  1.00  0.00    -0.343 N 
HETATM   15  C7  UNL     1      12.427  14.592  11.407  1.00  0.00     0.269 C 
HETATM   16  O3  UNL     1      12.519  13.394  11.156  1.00  0.00    -0.266 OA
HETATM   17  H7  UNL     1      11.541  16.034  12.626  1.00  0.00     0.163 HD
BRANCH  15  18
HETATM   18  C8  UNL     1      13.289  15.605  10.770  1.00  0.00     0.107 A 
HETATM   19  C9  UNL     1      12.868  16.659   9.972  1.00  0.00     0.086 A 
HETATM   20  S1  UNL     1      14.205  17.592   9.433  1.00  0.00    -0.094 SA
HETATM   21  C10 UNL     1      15.253  16.540  10.281  1.00  0.00     0.138 A 
HETATM   22  N3  UNL     1      14.678  15.554  10.930  1.00  0.00    -0.355 N 
ATOM     23  H3  UNL     1      15.175  14.849  11.474  1.00  0.00     0.166 HD
ENDBRANCH  15  18
ENDBRANCH   1  14
BRANCH   1  24
HETATM   24  C11 UNL     1       9.176  14.262  12.607  1.00  0.00     0.009 C 
HETATM   25  C12 UNL     1       9.069  14.501  11.100  1.00  0.00     0.012 C 
HETATM   26  C13 UNL     1       8.337  13.042  13.007  1.00  0.00     0.012 C 
ENDBRANCH   1  24
TORSDOF 6
ENDMDL
MODEL 9
REMARK VINA RESULT:    -6.630      3.159      4.727
REMARK INTER + INTRA:          -9.285
REMARK INTER:                  -8.761
REMARK INTRA:                  -0.524
REMARK UNBOUND:                -0.524
REMARK  6 active torsions:
REMARK  status: ('A' for Active; 'I' for Inactive)
REMARK    1  A    between atoms: C3_3  and  C14_22 
REMARK       I    between atoms: N1_6  and  C5_7 
REMARK    2  A    between atoms: C5_7  and  C6_9 
REMARK    3  A    between atoms: C6_9  and  N2_10 
REMARK    4  A    between atoms: C6_9  and  C11_19 
REMARK       I    between atoms: N2_10  and  C7_11 
REMARK    5  A    between atoms: C7_11  and  C8_13 
REMARK    6  A    between atoms: C14_22  and  O5_24 
ROOT
HETATM    1  C6  UNL     1      10.514  13.965  15.345  1.00  0.00     0.175 C 
ENDROOT
BRANCH   1   2
HETATM    2  C5  UNL     1      11.486  15.169  15.285  1.00  0.00     0.230 C 
HETATM    3  N1  UNL     1      12.770  14.919  14.857  1.00  0.00    -0.181 NA
HETATM    4  C2  UNL     1      13.826  15.952  14.749  1.00  0.00     0.093 C 
HETATM    5  C4  UNL     1      13.053  14.385  13.629  1.00  0.00     0.222 C 
HETATM    6  C1  UNL     1      14.735  15.932  15.963  1.00  0.00     0.029 C 
HETATM    7  C3  UNL     1      14.332  15.211  13.496  1.00  0.00     0.188 C 
HETATM    8  O1  UNL     1      12.520  13.507  12.992  1.00  0.00    -0.278 OA
HETATM    9  O2  UNL     1      11.121  16.301  15.626  1.00  0.00    -0.277 OA
BRANCH   7  10
HETATM   10  C14 UNL     1      14.313  15.957  12.158  1.00  0.00     0.154 C 
HETATM   11  O4  UNL     1      14.141  17.153  11.961  1.00  0.00    -0.649 OA
BRANCH  10  12
HETATM   12  O5  UNL     1      14.559  15.157  11.092  1.00  0.00    -0.776 OA
HETATM   13  H17 UNL     1      15.062  14.401  11.466  1.00  0.00     0.167 HD
ENDBRANCH  10  12
ENDBRANCH   7  10
ENDBRANCH   1   2
BRANCH   1  14
HETATM   14  N2  UNL     1       9.258  14.446  14.751  1.00  0.00    -0.343 N 
HETATM   15  C7  UNL     1       8.755  13.931  13.574  1.00  0.00     0.269 C 
HETATM   16  O3  UNL     1       9.298  12.990  13.002  1.00  0.00    -0.266 OA
HETATM   17  H7  UNL     1       8.895  15.313  15.129  1.00  0.00     0.163 HD
BRANCH  15  18
HETATM   18  C8  UNL     1       7.540  14.584  13.052  1.00  0.00     0.107 A 
HETATM   19  C9  UNL     1       6.708  14.096  12.055  1.00  0.00     0.086 A 
HETATM   20  S1  UNL     1       5.412  15.181  11.753  1.00  0.00    -0.094 SA
HETATM   21  C10 UNL     1       6.039  16.229  12.951  1.00  0.00     0.138 A 
HETATM   22  N3  UNL     1       7.134  15.827  13.552  1.00  0.00    -0.355 N 
ATOM     23  H3  UNL     1       7.620  16.347  14.281  1.00  0.00     0.166 HD
ENDBRANCH  15  18
ENDBRANCH   1  14
BRANCH   1  24
HETATM   24  C11 UNL     1      10.269  13.427  16.776  1.00  0.00     0.009 C 
HETATM   25  C12 UNL     1      11.485  13.590  17.689  1.00  0.00     0.012 C 
HETATM   26  C13 UNL     1       9.028  14.032  17.440  1.00  0.00     0.012 C 
ENDBRANCH   1  24
TORSDOF 6
ENDMDL
