MODEL 1
REMARK VINA RESULT:    -6.720      0.000      0.000
REMARK INTER + INTRA:          -9.052
REMARK INTER:                  -8.960
REMARK INTRA:                  -0.092
REMARK UNBOUND:                -0.172
REMARK  6 active torsions:
REMARK  status: ('A' for Active; 'I' for Inactive)
REMARK    1  A    between atoms: C3_3  and  C14_22 
REMARK       I    between atoms: N1_6  and  C5_7 
REMARK    2  A    between atoms: C5_7  and  C6_9 
REMARK    3  A    between atoms: C6_9  and  N2_10 
REMARK    4  A    between atoms: C6_9  and  C11_19 
REMARK       I    between atoms: N2_10  and  C7_11 
REMARK    5  A    between atoms: C7_11  and  C8_13 
REMARK    6  A    between atoms: C14_22  and  O5_24 
ROOT
HETATM    1  C6  UNL     1      11.953   1.550   9.731  1.00  0.00     0.175 C 
ENDROOT
BRANCH   1   2
HETATM    2  C5  UNL     1      11.320   2.523  10.756  1.00  0.00     0.230 C 
HETATM    3  N1  UNL     1      10.326   2.022  11.567  1.00  0.00    -0.181 NA
HETATM    4  C2  UNL     1       9.611   2.816  12.592  1.00  0.00     0.093 C 
HETATM    5  C4  UNL     1      10.517   0.958  12.407  1.00  0.00     0.222 C 
HETATM    6  C1  UNL     1       8.278   3.312  12.067  1.00  0.00     0.029 C 
HETATM    7  C3  UNL     1       9.581   1.544  13.463  1.00  0.00     0.188 C 
HETATM    8  O1  UNL     1      11.118  -0.081  12.265  1.00  0.00    -0.278 OA
HETATM    9  O2  UNL     1      11.686   3.703  10.826  1.00  0.00    -0.277 OA
BRANCH   7  10
HETATM   10  C14 UNL     1      10.302   1.577  14.814  1.00  0.00     0.154 C 
HETATM   11  O4  UNL     1      11.335   1.002  15.135  1.00  0.00    -0.649 OA
BRANCH  10  12
HETATM   12  O5  UNL     1       9.705   2.384  15.724  1.00  0.00    -0.776 OA
HETATM   13  H17 UNL     1      10.235   2.262  16.543  1.00  0.00     0.167 HD
ENDBRANCH  10  12
ENDBRANCH   7  10
ENDBRANCH   1   2
BRANCH   1  14
HETATM   14  N2  UNL     1      13.374   1.921   9.666  1.00  0.00    -0.343 N 
HETATM   15  C7  UNL     1      14.298   1.464  10.582  1.00  0.00     0.269 C 
HETATM   16  O3  UNL     1      13.989   0.662  11.460  1.00  0.00    -0.266 OA
HETATM   17  H7  UNL     1      13.600   2.692   9.048  1.00  0.00     0.163 HD
BRANCH  15  18
HETATM   18  C8  UNL     1      15.664   2.003  10.444  1.00  0.00     0.107 A 
HETATM   19  C9  UNL     1      16.483   1.889   9.330  1.00  0.00     0.086 A 
HETATM   20  S1  UNL     1      17.995   2.658   9.601  1.00  0.00    -0.094 SA
HETATM   21  C10 UNL     1      17.473   3.082  11.173  1.00  0.00     0.138 A 
HETATM   22  N3  UNL     1      16.263   2.694  11.503  1.00  0.00    -0.355 N 
ATOM     23  H3  UNL     1      15.822   2.872  12.405  1.00  0.00     0.166 HD
ENDBRANCH  15  18
ENDBRANCH   1  14
BRANCH   1  24
HETATM   24  C11 UNL     1      11.307   1.613   8.326  1.00  0.00     0.009 C 
HETATM   25  C12 UNL     1      12.325   1.868   7.214  1.00  0.00     0.012 C 
HETATM   26  C13 UNL     1      10.468   0.373   7.996  1.00  0.00     0.012 C 
ENDBRANCH   1  24
TORSDOF 6
ENDMDL
MODEL 2
REMARK VINA RESULT:    -6.184      1.732      2.244
REMARK INTER + INTRA:          -8.345
REMARK INTER:                  -8.161
REMARK INTRA:                  -0.183
REMARK UNBOUND:                -0.172
REMARK  6 active torsions:
REMARK  status: ('A' for Active; 'I' for Inactive)
REMARK    1  A    between atoms: C3_3  and  C14_22 
REMARK       I    between atoms: N1_6  and  C5_7 
REMARK    2  A    between atoms: C5_7  and  C6_9 
REMARK    3  A    between atoms: C6_9  and  N2_10 
REMARK    4  A    between atoms: C6_9  and  C11_19 
REMARK       I    between atoms: N2_10  and  C7_11 
REMARK    5  A    between atoms: C7_11  and  C8_13 
REMARK    6  A    between atoms: C14_22  and  O5_24 
ROOT
HETATM    1  C6  UNL     1      13.300   2.272   9.040  1.00  0.00     0.175 C 
ENDROOT
BRANCH   1   2
HETATM    2  C5  UNL     1      12.430   2.837  10.190  1.00  0.00     0.230 C 
HETATM    3  N1  UNL     1      11.632   1.945  10.871  1.00  0.00    -0.181 NA
HETATM    4  C2  UNL     1      10.735   2.319  11.988  1.00  0.00     0.093 C 
HETATM    5  C4  UNL     1      12.131   0.853  11.529  1.00  0.00     0.222 C 
HETATM    6  C1  UNL     1       9.308   2.497  11.506  1.00  0.00     0.029 C 
HETATM    7  C3  UNL     1      11.081   0.963  12.634  1.00  0.00     0.188 C 
HETATM    8  O1  UNL     1      13.001   0.067  11.236  1.00  0.00    -0.278 OA
HETATM    9  O2  UNL     1      12.445   4.043  10.467  1.00  0.00    -0.277 OA
BRANCH   7  10
HETATM   10  C14 UNL     1      11.783   0.969  13.996  1.00  0.00     0.154 C 
HETATM   11  O4  UNL     1      11.274   1.014  15.109  1.00  0.00    -0.649 OA
BRANCH  10  12
HETATM   12  O5  UNL     1      13.131   0.873  13.908  1.00  0.00    -0.776 OA
HETATM   13  H17 UNL     1      13.438   0.891  14.841  1.00  0.00     0.167 HD
ENDBRANCH  10  12
ENDBRANCH   7  10
ENDBRANCH   1   2
BRANCH   1  14
HETATM   14  N2  UNL     1      14.689   2.383   9.509  1.00  0.00    -0.343 N 
HETATM   15  C7  UNL     1      15.623   1.394   9.286  1.00  0.00     0.269 C 
HETATM   16  O3  UNL     1      15.357   0.398   8.618  1.00  0.00    -0.266 OA
HETATM   17  H7  UNL     1      14.869   3.118  10.183  1.00  0.00     0.163 HD
BRANCH  15  18
HETATM   18  C8  UNL     1      16.946   1.605   9.903  1.00  0.00     0.107 A 
HETATM   19  C9  UNL     1      17.648   2.801   9.953  1.00  0.00     0.086 A 
HETATM   20  S1  UNL     1      19.150   2.596  10.761  1.00  0.00    -0.094 SA
HETATM   21  C10 UNL     1      18.780   0.941  10.982  1.00  0.00     0.138 A 
HETATM   22  N3  UNL     1      17.627   0.539  10.502  1.00  0.00    -0.355 N 
ATOM     23  H3  UNL     1      17.276  -0.417  10.557  1.00  0.00     0.166 HD
ENDBRANCH  15  18
ENDBRANCH   1  14
BRANCH   1  24
HETATM   24  C11 UNL     1      13.117   3.013   7.693  1.00  0.00     0.009 C 
HETATM   25  C12 UNL     1      11.654   3.334   7.385  1.00  0.00     0.012 C 
HETATM   26  C13 UNL     1      13.968   4.283   7.588  1.00  0.00     0.012 C 
ENDBRANCH   1  24
TORSDOF 6
ENDMDL
MODEL 3
REMARK VINA RESULT:    -6.073      3.459      5.671
REMARK INTER + INTRA:          -8.197
REMARK INTER:                  -7.658
REMARK INTRA:                  -0.539
REMARK UNBOUND:                -0.172
REMARK  6 active torsions:
REMARK  status: ('A' for Active; 'I' for Inactive)
REMARK    1  A    between atoms: C3_3  and  C14_22 
REMARK       I    between atoms: N1_6  and  C5_7 
REMARK    2  A    between atoms: C5_7  and  C6_9 
REMARK    3  A    between atoms: C6_9  and  N2_10 
REMARK    4  A    between atoms: C6_9  and  C11_19 
REMARK       I    between atoms: N2_10  and  C7_11 
REMARK    5  A    between atoms: C7_11  and  C8_13 
REMARK    6  A    between atoms: C14_22  and  O5_24 
ROOT
HETATM    1  C6  UNL     1      12.577   2.393   9.492  1.00  0.00     0.175 C 
ENDROOT
BRANCH   1   2
HETATM    2  C5  UNL     1      11.425   3.179   8.820  1.00  0.00     0.230 C 
HETATM    3  N1  UNL     1      10.894   2.650   7.665  1.00  0.00    -0.181 NA
HETATM    4  C2  UNL     1       9.796   3.277   6.893  1.00  0.00     0.093 C 
HETATM    5  C4  UNL     1      10.332   1.404   7.607  1.00  0.00     0.222 C 
HETATM    6  C1  UNL     1      10.337   4.069   5.719  1.00  0.00     0.029 C 
HETATM    7  C3  UNL     1       9.285   1.855   6.591  1.00  0.00     0.188 C 
HETATM    8  O1  UNL     1      10.658   0.351   8.105  1.00  0.00    -0.278 OA
HETATM    9  O2  UNL     1      11.016   4.244   9.299  1.00  0.00    -0.277 OA
BRANCH   7  10
HETATM   10  C14 UNL     1       7.892   1.465   7.095  1.00  0.00     0.154 C 
HETATM   11  O4  UNL     1       6.989   2.202   7.471  1.00  0.00    -0.649 OA
BRANCH  10  12
HETATM   12  O5  UNL     1       7.664   0.129   7.069  1.00  0.00    -0.776 OA
HETATM   13  H17 UNL     1       7.076  -0.002   6.292  1.00  0.00     0.167 HD
ENDBRANCH  10  12
ENDBRANCH   7  10
ENDBRANCH   1   2
BRANCH   1  14
HETATM   14  N2  UNL     1      12.160   2.204  10.889  1.00  0.00    -0.343 N 
HETATM   15  C7  UNL     1      11.985   0.953  11.443  1.00  0.00     0.269 C 
HETATM   16  O3  UNL     1      12.241  -0.069  10.814  1.00  0.00    -0.266 OA
HETATM   17  H7  UNL     1      11.804   3.029  11.358  1.00  0.00     0.163 HD
BRANCH  15  18
HETATM   18  C8  UNL     1      11.468   0.927  12.824  1.00  0.00     0.107 A 
HETATM   19  C9  UNL     1      10.244   1.419  13.253  1.00  0.00     0.086 A 
HETATM   20  S1  UNL     1      10.049   1.188  14.944  1.00  0.00    -0.094 SA
HETATM   21  C10 UNL     1      11.597   0.463  15.001  1.00  0.00     0.138 A 
HETATM   22  N3  UNL     1      12.238   0.383  13.859  1.00  0.00    -0.355 N 
ATOM     23  H3  UNL     1      13.168  -0.020  13.741  1.00  0.00     0.166 HD
ENDBRANCH  15  18
ENDBRANCH   1  14
BRANCH   1  24
HETATM   24  C11 UNL     1      13.949   3.109   9.424  1.00  0.00     0.009 C 
HETATM   25  C12 UNL     1      15.085   2.275  10.015  1.00  0.00     0.012 C 
HETATM   26  C13 UNL     1      14.314   3.569   8.008  1.00  0.00     0.012 C 
ENDBRANCH   1  24
TORSDOF 6
ENDMDL
MODEL 4
REMARK VINA RESULT:    -6.056      3.060      6.495
REMARK INTER + INTRA:          -8.175
REMARK INTER:                  -8.201
REMARK INTRA:                   0.026
REMARK UNBOUND:                -0.172
REMARK  6 active torsions:
REMARK  status: ('A' for Active; 'I' for Inactive)
REMARK    1  A    between atoms: C3_3  and  C14_22 
REMARK       I    between atoms: N1_6  and  C5_7 
REMARK    2  A    between atoms: C5_7  and  C6_9 
REMARK    3  A    between atoms: C6_9  and  N2_10 
REMARK    4  A    between atoms: C6_9  and  C11_19 
REMARK       I    between atoms: N2_10  and  C7_11 
REMARK    5  A    between atoms: C7_11  and  C8_13 
REMARK    6  A    between atoms: C14_22  and  O5_24 
ROOT
HETATM    1  C6  UNL     1      12.907   2.169   9.981  1.00  0.00     0.175 C 
ENDROOT
BRANCH   1   2
HETATM    2  C5  UNL     1      14.442   1.966  10.003  1.00  0.00     0.230 C 
HETATM    3  N1  UNL     1      15.206   2.870   9.299  1.00  0.00    -0.181 NA
HETATM    4  C2  UNL     1      16.683   2.817   9.210  1.00  0.00     0.093 C 
HETATM    5  C4  UNL     1      15.188   4.215   9.553  1.00  0.00     0.222 C 
HETATM    6  C1  UNL     1      17.128   2.156   7.919  1.00  0.00     0.029 C 
HETATM    7  C3  UNL     1      16.675   4.358   9.230  1.00  0.00     0.188 C 
HETATM    8  O1  UNL     1      14.283   4.972   9.815  1.00  0.00    -0.278 OA
HETATM    9  O2  UNL     1      14.950   1.019  10.616  1.00  0.00    -0.277 OA
BRANCH   7  10
HETATM   10  C14 UNL     1      17.377   5.069  10.391  1.00  0.00     0.154 C 
HETATM   11  O4  UNL     1      17.417   6.270  10.630  1.00  0.00    -0.649 OA
BRANCH  10  12
HETATM   12  O5  UNL     1      17.985   4.220  11.254  1.00  0.00    -0.776 OA
HETATM   13  H17 UNL     1      18.043   4.727  12.094  1.00  0.00     0.167 HD
ENDBRANCH  10  12
ENDBRANCH   7  10
ENDBRANCH   1   2
BRANCH   1  14
HETATM   14  N2  UNL     1      12.414   1.572  11.230  1.00  0.00    -0.343 N 
HETATM   15  C7  UNL     1      11.308   2.061  11.894  1.00  0.00     0.269 C 
HETATM   16  O3  UNL     1      10.635   2.977  11.432  1.00  0.00    -0.266 OA
HETATM   17  H7  UNL     1      13.046   0.927  11.689  1.00  0.00     0.163 HD
BRANCH  15  18
HETATM   18  C8  UNL     1      10.997   1.420  13.186  1.00  0.00     0.107 A 
HETATM   19  C9  UNL     1      11.899   0.781  14.025  1.00  0.00     0.086 A 
HETATM   20  S1  UNL     1      11.109   0.171  15.422  1.00  0.00    -0.094 SA
HETATM   21  C10 UNL     1       9.628   0.782  14.825  1.00  0.00     0.138 A 
HETATM   22  N3  UNL     1       9.684   1.402  13.669  1.00  0.00    -0.355 N 
ATOM     23  H3  UNL     1       8.883   1.813  13.191  1.00  0.00     0.166 HD
ENDBRANCH  15  18
ENDBRANCH   1  14
BRANCH   1  24
HETATM   24  C11 UNL     1      12.208   1.529   8.756  1.00  0.00     0.009 C 
HETATM   25  C12 UNL     1      11.489   0.223   9.098  1.00  0.00     0.012 C 
HETATM   26  C13 UNL     1      11.247   2.488   8.045  1.00  0.00     0.012 C 
ENDBRANCH   1  24
TORSDOF 6
ENDMDL
MODEL 5
REMARK VINA RESULT:    -5.814      1.691      1.944
REMARK INTER + INTRA:          -7.855
REMARK INTER:                  -7.584
REMARK INTRA:                  -0.270
REMARK UNBOUND:                -0.172
REMARK  6 active torsions:
REMARK  status: ('A' for Active; 'I' for Inactive)
REMARK    1  A    between atoms: C3_3  and  C14_22 
REMARK       I    between atoms: N1_6  and  C5_7 
REMARK    2  A    between atoms: C5_7  and  C6_9 
REMARK    3  A    between atoms: C6_9  and  N2_10 
REMARK    4  A    between atoms: C6_9  and  C11_19 
REMARK       I    between atoms: N2_10  and  C7_11 
REMARK    5  A    between atoms: C7_11  and  C8_13 
REMARK    6  A    between atoms: C14_22  and  O5_24 
ROOT
HETATM    1  C6  UNL     1      12.226   2.200   8.937  1.00  0.00     0.175 C 
ENDROOT
BRANCH   1   2
HETATM    2  C5  UNL     1      11.752   2.762  10.300  1.00  0.00     0.230 C 
HETATM    3  N1  UNL     1      11.058   1.906  11.125  1.00  0.00    -0.181 NA
HETATM    4  C2  UNL     1      10.528   2.283  12.455  1.00  0.00     0.093 C 
HETATM    5  C4  UNL     1      11.580   0.724  11.578  1.00  0.00     0.222 C 
HETATM    6  C1  UNL     1       9.056   2.638  12.375  1.00  0.00     0.029 C 
HETATM    7  C3  UNL     1      10.870   0.855  12.925  1.00  0.00     0.188 C 
HETATM    8  O1  UNL     1      12.249  -0.121  11.032  1.00  0.00    -0.278 OA
HETATM    9  O2  UNL     1      11.977   3.936  10.617  1.00  0.00    -0.277 OA
BRANCH   7  10
HETATM   10  C14 UNL     1      11.893   0.691  14.053  1.00  0.00     0.154 C 
HETATM   11  O4  UNL     1      11.702   0.298  15.197  1.00  0.00    -0.649 OA
BRANCH  10  12
HETATM   12  O5  UNL     1      13.160   0.994  13.679  1.00  0.00    -0.776 OA
HETATM   13  H17 UNL     1      13.224   0.673  12.753  1.00  0.00     0.167 HD
ENDBRANCH  10  12
ENDBRANCH   7  10
ENDBRANCH   1   2
BRANCH   1  14
HETATM   14  N2  UNL     1      13.555   2.787   8.712  1.00  0.00    -0.343 N 
HETATM   15  C7  UNL     1      14.717   2.060   8.863  1.00  0.00     0.269 C 
HETATM   16  O3  UNL     1      14.695   0.861   9.124  1.00  0.00    -0.266 OA
HETATM   17  H7  UNL     1      13.585   3.798   8.650  1.00  0.00     0.163 HD
BRANCH  15  18
HETATM   18  C8  UNL     1      15.974   2.814   8.700  1.00  0.00     0.107 A 
HETATM   19  C9  UNL     1      16.207   4.122   9.101  1.00  0.00     0.086 A 
HETATM   20  S1  UNL     1      17.807   4.607   8.711  1.00  0.00    -0.094 SA
HETATM   21  C10 UNL     1      18.086   3.063   8.030  1.00  0.00     0.138 A 
HETATM   22  N3  UNL     1      17.078   2.223   8.075  1.00  0.00    -0.355 N 
ATOM     23  H3  UNL     1      17.098   1.273   7.706  1.00  0.00     0.166 HD
ENDBRANCH  15  18
ENDBRANCH   1  14
BRANCH   1  24
HETATM   24  C11 UNL     1      11.277   2.528   7.759  1.00  0.00     0.009 C 
HETATM   25  C12 UNL     1      11.865   2.150   6.398  1.00  0.00     0.012 C 
HETATM   26  C13 UNL     1       9.884   1.910   7.921  1.00  0.00     0.012 C 
ENDBRANCH   1  24
TORSDOF 6
ENDMDL
MODEL 6
REMARK VINA RESULT:    -5.777     13.646     15.808
REMARK INTER + INTRA:          -7.806
REMARK INTER:                  -7.484
REMARK INTRA:                  -0.322
REMARK UNBOUND:                -0.172
REMARK  6 active torsions:
REMARK  status: ('A' for Active; 'I' for Inactive)
REMARK    1  A    between atoms: C3_3  and  C14_22 
REMARK       I    between atoms: N1_6  and  C5_7 
REMARK    2  A    between atoms: C5_7  and  C6_9 
REMARK    3  A    between atoms: C6_9  and  N2_10 
REMARK    4  A    between atoms: C6_9  and  C11_19 
REMARK       I    between atoms: N2_10  and  C7_11 
REMARK    5  A    between atoms: C7_11  and  C8_13 
REMARK    6  A    between atoms: C14_22  and  O5_24 
ROOT
HETATM    1  C6  UNL     1       6.395  16.601   9.026  1.00  0.00     0.175 C 
ENDROOT
BRANCH   1   2
HETATM    2  C5  UNL     1       7.816  15.992   9.114  1.00  0.00     0.230 C 
HETATM    3  N1  UNL     1       8.021  15.011  10.058  1.00  0.00    -0.181 NA
HETATM    4  C2  UNL     1       9.318  14.330  10.280  1.00  0.00     0.093 C 
HETATM    5  C4  UNL     1       7.311  13.841  10.081  1.00  0.00     0.222 C 
HETATM    6  C1  UNL     1      10.065  14.946  11.448  1.00  0.00     0.029 C 
HETATM    7  C3  UNL     1       8.519  13.045  10.571  1.00  0.00     0.188 C 
HETATM    8  O1  UNL     1       6.141  13.607   9.890  1.00  0.00    -0.278 OA
HETATM    9  O2  UNL     1       8.726  16.388   8.375  1.00  0.00    -0.277 OA
BRANCH   7  10
HETATM   10  C14 UNL     1       8.734  11.837   9.653  1.00  0.00     0.154 C 
HETATM   11  O4  UNL     1       8.537  11.759   8.447  1.00  0.00    -0.649 OA
BRANCH  10  12
HETATM   12  O5  UNL     1       9.239  10.756  10.295  1.00  0.00    -0.776 OA
HETATM   13  H17 UNL     1       8.673  10.659  11.092  1.00  0.00     0.167 HD
ENDBRANCH  10  12
ENDBRANCH   7  10
ENDBRANCH   1   2
BRANCH   1  14
HETATM   14  N2  UNL     1       6.195  16.924   7.606  1.00  0.00    -0.343 N 
HETATM   15  C7  UNL     1       5.583  16.051   6.731  1.00  0.00     0.269 C 
HETATM   16  O3  UNL     1       5.109  14.985   7.115  1.00  0.00    -0.266 OA
HETATM   17  H7  UNL     1       6.714  17.722   7.258  1.00  0.00     0.163 HD
BRANCH  15  18
HETATM   18  C8  UNL     1       5.545  16.475   5.319  1.00  0.00     0.107 A 
HETATM   19  C9  UNL     1       6.507  16.211   4.355  1.00  0.00     0.086 A 
HETATM   20  S1  UNL     1       6.065  16.897   2.844  1.00  0.00    -0.094 SA
HETATM   21  C10 UNL     1       4.638  17.506   3.564  1.00  0.00     0.138 A 
HETATM   22  N3  UNL     1       4.473  17.234   4.837  1.00  0.00    -0.355 N 
ATOM     23  H3  UNL     1       3.675  17.534   5.396  1.00  0.00     0.166 HD
ENDBRANCH  15  18
ENDBRANCH   1  14
BRANCH   1  24
HETATM   24  C11 UNL     1       6.198  17.860   9.906  1.00  0.00     0.009 C 
HETATM   25  C12 UNL     1       4.753  18.039  10.373  1.00  0.00     0.012 C 
HETATM   26  C13 UNL     1       7.149  17.908  11.107  1.00  0.00     0.012 C 
ENDBRANCH   1  24
TORSDOF 6
ENDMDL
MODEL 7
REMARK VINA RESULT:    -5.748      3.562      6.786
REMARK INTER + INTRA:          -7.769
REMARK INTER:                  -7.316
REMARK INTRA:                  -0.453
REMARK UNBOUND:                -0.172
REMARK  6 active torsions:
REMARK  status: ('A' for Active; 'I' for Inactive)
REMARK    1  A    between atoms: C3_3  and  C14_22 
REMARK       I    between atoms: N1_6  and  C5_7 
REMARK    2  A    between atoms: C5_7  and  C6_9 
REMARK    3  A    between atoms: C6_9  and  N2_10 
REMARK    4  A    between atoms: C6_9  and  C11_19 
REMARK       I    between atoms: N2_10  and  C7_11 
REMARK    5  A    between atoms: C7_11  and  C8_13 
REMARK    6  A    between atoms: C14_22  and  O5_24 
ROOT
HETATM    1  C6  UNL     1      11.521   2.275   9.712  1.00  0.00     0.175 C 
ENDROOT
BRANCH   1   2
HETATM    2  C5  UNL     1      12.774   2.924   9.074  1.00  0.00     0.230 C 
HETATM    3  N1  UNL     1      13.923   2.950   9.832  1.00  0.00    -0.181 NA
HETATM    4  C2  UNL     1      15.204   3.539   9.379  1.00  0.00     0.093 C 
HETATM    5  C4  UNL     1      14.521   1.818  10.315  1.00  0.00     0.222 C 
HETATM    6  C1  UNL     1      15.381   4.944   9.921  1.00  0.00     0.029 C 
HETATM    7  C3  UNL     1      15.920   2.409  10.143  1.00  0.00     0.188 C 
HETATM    8  O1  UNL     1      14.061   0.808  10.794  1.00  0.00    -0.278 OA
HETATM    9  O2  UNL     1      12.730   3.411   7.938  1.00  0.00    -0.277 OA
BRANCH   7  10
HETATM   10  C14 UNL     1      16.785   1.430   9.343  1.00  0.00     0.154 C 
HETATM   11  O4  UNL     1      17.102   1.491   8.162  1.00  0.00    -0.649 OA
BRANCH  10  12
HETATM   12  O5  UNL     1      17.268   0.405  10.088  1.00  0.00    -0.776 OA
HETATM   13  H17 UNL     1      18.217   0.351   9.840  1.00  0.00     0.167 HD
ENDBRANCH  10  12
ENDBRANCH   7  10
ENDBRANCH   1   2
BRANCH   1  14
HETATM   14  N2  UNL     1      10.470   2.363   8.689  1.00  0.00    -0.343 N 
HETATM   15  C7  UNL     1      10.127   1.292   7.891  1.00  0.00     0.269 C 
HETATM   16  O3  UNL     1      10.636   0.186   8.048  1.00  0.00    -0.266 OA
HETATM   17  H7  UNL     1      10.161   3.299   8.454  1.00  0.00     0.163 HD
BRANCH  15  18
HETATM   18  C8  UNL     1       9.125   1.564   6.843  1.00  0.00     0.107 A 
HETATM   19  C9  UNL     1       8.657   2.811   6.457  1.00  0.00     0.086 A 
HETATM   20  S1  UNL     1       7.490   2.667   5.205  1.00  0.00    -0.094 SA
HETATM   21  C10 UNL     1       7.671   0.968   5.262  1.00  0.00     0.138 A 
HETATM   22  N3  UNL     1       8.533   0.509   6.139  1.00  0.00    -0.355 N 
ATOM     23  H3  UNL     1       8.741  -0.478   6.287  1.00  0.00     0.166 HD
ENDBRANCH  15  18
ENDBRANCH   1  14
BRANCH   1  24
HETATM   24  C11 UNL     1      11.063   2.955  11.026  1.00  0.00     0.009 C 
HETATM   25  C12 UNL     1       9.724   3.680  10.885  1.00  0.00     0.012 C 
HETATM   26  C13 UNL     1      11.016   1.990  12.216  1.00  0.00     0.012 C 
ENDBRANCH   1  24
TORSDOF 6
ENDMDL
MODEL 8
REMARK VINA RESULT:    -5.746      4.116      8.181
REMARK INTER + INTRA:          -7.766
REMARK INTER:                  -7.642
REMARK INTRA:                  -0.124
REMARK UNBOUND:                -0.172
REMARK  6 active torsions:
REMARK  status: ('A' for Active; 'I' for Inactive)
REMARK    1  A    between atoms: C3_3  and  C14_22 
REMARK       I    between atoms: N1_6  and  C5_7 
REMARK    2  A    between atoms: C5_7  and  C6_9 
REMARK    3  A    between atoms: C6_9  and  N2_10 
REMARK    4  A    between atoms: C6_9  and  C11_19 
REMARK       I    between atoms: N2_10  and  C7_11 
REMARK    5  A    between atoms: C7_11  and  C8_13 
REMARK    6  A    between atoms: C14_22  and  O5_24 
ROOT
HETATM    1  C6  UNL     1      17.113   3.225   9.737  1.00  0.00     0.175 C 
ENDROOT
BRANCH   1   2
HETATM    2  C5  UNL     1      16.757   3.785   8.338  1.00  0.00     0.230 C 
HETATM    3  N1  UNL     1      17.682   3.603   7.335  1.00  0.00    -0.181 NA
HETATM    4  C2  UNL     1      17.504   4.082   5.945  1.00  0.00     0.093 C 
HETATM    5  C4  UNL     1      18.117   2.367   6.940  1.00  0.00     0.222 C 
HETATM    6  C1  UNL     1      18.226   5.397   5.723  1.00  0.00     0.029 C 
HETATM    7  C3  UNL     1      18.234   2.806   5.481  1.00  0.00     0.188 C 
HETATM    8  O1  UNL     1      18.399   1.375   7.570  1.00  0.00    -0.278 OA
HETATM    9  O2  UNL     1      15.691   4.383   8.143  1.00  0.00    -0.277 OA
BRANCH   7  10
HETATM   10  C14 UNL     1      17.470   1.817   4.594  1.00  0.00     0.154 C 
HETATM   11  O4  UNL     1      17.619   1.603   3.398  1.00  0.00    -0.649 OA
BRANCH  10  12
HETATM   12  O5  UNL     1      16.552   1.086   5.270  1.00  0.00    -0.776 OA
HETATM   13  H17 UNL     1      15.739   1.148   4.721  1.00  0.00     0.167 HD
ENDBRANCH  10  12
ENDBRANCH   7  10
ENDBRANCH   1   2
BRANCH   1  14
HETATM   14  N2  UNL     1      15.831   2.829  10.339  1.00  0.00    -0.343 N 
HETATM   15  C7  UNL     1      15.307   1.562  10.187  1.00  0.00     0.269 C 
HETATM   16  O3  UNL     1      15.924   0.677   9.601  1.00  0.00    -0.266 OA
HETATM   17  H7  UNL     1      15.254   3.586  10.685  1.00  0.00     0.163 HD
BRANCH  15  18
HETATM   18  C8  UNL     1      13.967   1.346  10.764  1.00  0.00     0.107 A 
HETATM   19  C9  UNL     1      12.753   1.547  10.122  1.00  0.00     0.086 A 
HETATM   20  S1  UNL     1      11.440   1.180  11.166  1.00  0.00    -0.094 SA
HETATM   21  C10 UNL     1      12.558   0.790  12.400  1.00  0.00     0.138 A 
HETATM   22  N3  UNL     1      13.827   0.913  12.087  1.00  0.00    -0.355 N 
ATOM     23  H3  UNL     1      14.602   0.719  12.721  1.00  0.00     0.166 HD
ENDBRANCH  15  18
ENDBRANCH   1  14
BRANCH   1  24
HETATM   24  C11 UNL     1      17.854   4.236  10.647  1.00  0.00     0.009 C 
HETATM   25  C12 UNL     1      19.375   4.135  10.532  1.00  0.00     0.012 C 
HETATM   26  C13 UNL     1      17.403   5.684  10.425  1.00  0.00     0.012 C 
ENDBRANCH   1  24
TORSDOF 6
ENDMDL
MODEL 9
REMARK VINA RESULT:    -5.572      2.842      5.471
REMARK INTER + INTRA:          -7.536
REMARK INTER:                  -7.364
REMARK INTRA:                  -0.172
REMARK UNBOUND:                -0.172
REMARK  6 active torsions:
REMARK  status: ('A' for Active; 'I' for Inactive)
REMARK    1  A    between atoms: C3_3  and  C14_22 
REMARK       I    between atoms: N1_6  and  C5_7 
REMARK    2  A    between atoms: C5_7  and  C6_9 
REMARK    3  A    between atoms: C6_9  and  N2_10 
REMARK    4  A    between atoms: C6_9  and  C11_19 
REMARK       I    between atoms: N2_10  and  C7_11 
REMARK    5  A    between atoms: C7_11  and  C8_13 
REMARK    6  A    between atoms: C14_22  and  O5_24 
ROOT
HETATM    1  C6  UNL     1      11.787   2.500   9.698  1.00  0.00     0.175 C 
ENDROOT
BRANCH   1   2
HETATM    2  C5  UNL     1      11.387   1.196   8.963  1.00  0.00     0.230 C 
HETATM    3  N1  UNL     1      10.803   1.328   7.724  1.00  0.00    -0.181 NA
HETATM    4  C2  UNL     1      10.354   0.187   6.892  1.00  0.00     0.093 C 
HETATM    5  C4  UNL     1      11.417   1.956   6.675  1.00  0.00     0.222 C 
HETATM    6  C1  UNL     1       8.864  -0.047   7.045  1.00  0.00     0.029 C 
HETATM    7  C3  UNL     1      10.803   0.995   5.658  1.00  0.00     0.188 C 
HETATM    8  O1  UNL     1      12.086   2.962   6.621  1.00  0.00    -0.278 OA
HETATM    9  O2  UNL     1      11.575   0.089   9.483  1.00  0.00    -0.277 OA
BRANCH   7  10
HETATM   10  C14 UNL     1      11.915   0.413   4.779  1.00  0.00     0.154 C 
HETATM   11  O4  UNL     1      11.814  -0.102   3.673  1.00  0.00    -0.649 OA
BRANCH  10  12
HETATM   12  O5  UNL     1      13.151   0.542   5.320  1.00  0.00    -0.776 OA
HETATM   13  H17 UNL     1      13.143   1.431   5.737  1.00  0.00     0.167 HD
ENDBRANCH  10  12
ENDBRANCH   7  10
ENDBRANCH   1   2
BRANCH   1  14
HETATM   14  N2  UNL     1      13.173   2.292  10.140  1.00  0.00    -0.343 N 
HETATM   15  C7  UNL     1      14.225   3.028   9.636  1.00  0.00     0.269 C 
HETATM   16  O3  UNL     1      14.043   3.948   8.844  1.00  0.00    -0.266 OA
HETATM   17  H7  UNL     1      13.345   1.444  10.667  1.00  0.00     0.163 HD
BRANCH  15  18
HETATM   18  C8  UNL     1      15.568   2.635  10.102  1.00  0.00     0.107 A 
HETATM   19  C9  UNL     1      16.246   1.472   9.769  1.00  0.00     0.086 A 
HETATM   20  S1  UNL     1      17.780   1.414  10.540  1.00  0.00    -0.094 SA
HETATM   21  C10 UNL     1      17.444   2.923  11.271  1.00  0.00     0.138 A 
HETATM   22  N3  UNL     1      16.282   3.459  10.981  1.00  0.00    -0.355 N 
ATOM     23  H3  UNL     1      15.946   4.350  11.344  1.00  0.00     0.166 HD
ENDBRANCH  15  18
ENDBRANCH   1  14
BRANCH   1  24
HETATM   24  C11 UNL     1      10.876   2.845  10.902  1.00  0.00     0.009 C 
HETATM   25  C12 UNL     1       9.387   2.781  10.559  1.00  0.00     0.012 C 
HETATM   26  C13 UNL     1      11.168   1.988  12.139  1.00  0.00     0.012 C 
ENDBRANCH   1  24
TORSDOF 6
ENDMDL
