REMARK  8 active torsions:
REMARK  status: ('A' for Active; 'I' for Inactive)
REMARK    1  A    between atoms: C4_9  and  N2_10 
REMARK       I    between atoms: N2_10  and  C5_11 
REMARK    2  A    between atoms: C5_11  and  C6_13 
REMARK    3  A    between atoms: N3_15  and  C8_16 
REMARK    4  A    between atoms: C14_23  and  C15_24 
REMARK    5  A    between atoms: C15_24  and  O4_25 
REMARK    6  A    between atoms: O4_25  and  O5_26 
REMARK    7  A    between atoms: O5_26  and  N4_27 
REMARK    8  A    between atoms: N4_27  and  N5_28 
ROOT
HETATM    1  S1  UNL     1       2.285  -0.709   1.659  1.00  0.00    -0.062 SA
HETATM    2  S2  UNL     1       1.861   1.148   0.609  1.00  0.00    -0.079 SA
HETATM    3  C1  UNL     1       2.607   0.917  -1.077  1.00  0.00     0.166 C 
HETATM    4  C2  UNL     1       1.642   0.041  -1.798  1.00  0.00     0.223 C 
HETATM    5  O1  UNL     1       0.532   0.204  -2.369  1.00  0.00    -0.278 OA
HETATM    6  N1  UNL     1       2.492  -1.118  -1.450  1.00  0.00    -0.177 NA
HETATM    7  C3  UNL     1       2.105  -2.220  -0.635  1.00  0.00     0.240 C 
HETATM    8  O2  UNL     1       2.387  -3.396  -0.985  1.00  0.00    -0.276 OA
HETATM    9  C4  UNL     1       1.366  -1.947   0.652  1.00  0.00     0.245 C 
HETATM   10  C14 UNL     1       3.569  -0.146  -1.311  1.00  0.00     0.124 C 
ENDROOT
BRANCH   9  11
HETATM   11  N2  UNL     1      -0.013  -1.517   0.404  1.00  0.00    -0.334 N 
HETATM   12  C5  UNL     1      -0.952  -1.310   1.468  1.00  0.00     0.262 C 
HETATM   13  O3  UNL     1      -0.636  -1.568   2.660  1.00  0.00    -0.267 OA
HETATM   14  H3  UNL     1      -0.359  -1.436  -0.577  1.00  0.00     0.164 HD
BRANCH  12  15
HETATM   15  C6  UNL     1      -2.291  -0.794   1.177  1.00  0.00     0.106 A 
HETATM   16  C7  UNL     1      -2.970  -0.382  -0.012  1.00  0.00     0.131 A 
HETATM   17  N3  UNL     1      -4.169  -0.039   0.598  1.00  0.00    -0.291 N 
HETATM   18  S3  UNL     1      -3.603  -0.449   2.087  1.00  0.00    -0.001 SA
BRANCH  17  19
HETATM   19  C8  UNL     1      -5.417   0.475   0.117  1.00  0.00     0.045 A 
HETATM   20  C9  UNL     1      -5.599   0.733  -1.251  1.00  0.00     0.030 A 
HETATM   21  C10 UNL     1      -6.818   1.236  -1.718  1.00  0.00     0.002 A 
HETATM   22  C11 UNL     1      -7.862   1.484  -0.823  1.00  0.00     0.000 A 
HETATM   23  C12 UNL     1      -7.689   1.230   0.540  1.00  0.00     0.002 A 
HETATM   24  C13 UNL     1      -6.471   0.727   1.011  1.00  0.00     0.030 A 
ENDBRANCH  17  19
ENDBRANCH  12  15
ENDBRANCH   9  11
BRANCH  10  25
HETATM   25  C15 UNL     1       4.657  -0.438  -0.252  1.00  0.00     0.234 C 
BRANCH  25  26
HETATM   26  O4  UNL     1       5.924  -0.376  -0.858  1.00  0.00    -0.220 OA
BRANCH  26  27
HETATM   27  O5  UNL     1       6.807  -0.583   0.110  1.00  0.00    -0.127 OA
BRANCH  27  28
HETATM   28  N4  UNL     1       7.713   0.436   0.037  1.00  0.00    -0.105 NA
HETATM   29  H13 UNL     1       7.962   0.653  -0.961  1.00  0.00     0.177 HD
BRANCH  28  30
HETATM   30  N5  UNL     1       7.149   1.570   0.650  1.00  0.00    -0.245 NA
HETATM   31  H14 UNL     1       7.938   2.213   0.888  1.00  0.00     0.139 HD
HETATM   32  H15 UNL     1       6.554   2.069  -0.052  1.00  0.00     0.139 HD
ENDBRANCH  28  30
ENDBRANCH  27  28
ENDBRANCH  26  27
ENDBRANCH  25  26
ENDBRANCH  10  25
TORSDOF 8
