REMARK  8 active torsions:
REMARK  status: ('A' for Active; 'I' for Inactive)
REMARK    1  A    between atoms: C5_9  and  N2_10 
REMARK       I    between atoms: N2_10  and  C6_11 
REMARK    2  A    between atoms: C6_11  and  C7_13 
REMARK    3  A    between atoms: N3_15  and  C9_16 
REMARK    4  A    between atoms: C15_23  and  C16_24 
REMARK    5  A    between atoms: C16_24  and  O4_25 
REMARK    6  A    between atoms: O4_25  and  O5_26 
REMARK    7  A    between atoms: O5_26  and  N4_27 
REMARK    8  A    between atoms: N4_27  and  N5_28 
ROOT
HETATM    1  C1  UNL     1       2.273  -0.100   0.994  1.00  0.00     0.109 C 
HETATM    2  S1  UNL     1       1.740   1.673   0.770  1.00  0.00    -0.151 SA
HETATM    3  C2  UNL     1       1.976   2.075  -1.028  1.00  0.00     0.155 C 
HETATM    4  C3  UNL     1       1.024   1.211  -1.775  1.00  0.00     0.222 C 
HETATM    5  O1  UNL     1      -0.206   1.246  -2.044  1.00  0.00    -0.278 OA
HETATM    6  N1  UNL     1       2.124   0.241  -1.965  1.00  0.00    -0.178 NA
HETATM    7  C4  UNL     1       2.168  -1.050  -1.376  1.00  0.00     0.230 C 
HETATM    8  O2  UNL     1       2.577  -2.039  -2.039  1.00  0.00    -0.277 OA
HETATM    9  C5  UNL     1       1.700  -1.201   0.053  1.00  0.00     0.181 C 
HETATM   10  C15 UNL     1       3.010   1.379  -1.771  1.00  0.00     0.123 C 
ENDROOT
BRANCH   9  11
HETATM   11  N2  UNL     1       0.236  -1.240   0.118  1.00  0.00    -0.343 N 
HETATM   12  C6  UNL     1      -0.472  -1.720   1.270  1.00  0.00     0.262 C 
HETATM   13  O3  UNL     1       0.152  -2.228   2.239  1.00  0.00    -0.267 OA
HETATM   14  H5  UNL     1      -0.326  -0.969  -0.720  1.00  0.00     0.163 HD
BRANCH  12  15
HETATM   15  C7  UNL     1      -1.933  -1.630   1.326  1.00  0.00     0.106 A 
HETATM   16  C8  UNL     1      -2.941  -1.121   0.450  1.00  0.00     0.131 A 
HETATM   17  N3  UNL     1      -4.026  -1.424   1.261  1.00  0.00    -0.291 N 
HETATM   18  S2  UNL     1      -3.059  -2.072   2.423  1.00  0.00    -0.001 SA
BRANCH  17  19
HETATM   19  C9  UNL     1      -5.443  -1.245   1.137  1.00  0.00     0.045 A 
HETATM   20  C10 UNL     1      -5.983  -0.621   0.000  1.00  0.00     0.030 A 
HETATM   21  C11 UNL     1      -7.366  -0.451  -0.119  1.00  0.00     0.002 A 
HETATM   22  C12 UNL     1      -8.217  -0.901   0.893  1.00  0.00     0.000 A 
HETATM   23  C13 UNL     1      -7.687  -1.522   2.026  1.00  0.00     0.002 A 
HETATM   24  C14 UNL     1      -6.305  -1.693   2.150  1.00  0.00     0.030 A 
ENDBRANCH  17  19
ENDBRANCH  12  15
ENDBRANCH   9  11
BRANCH  10  25
HETATM   25  C16 UNL     1       4.389   1.078  -1.139  1.00  0.00     0.234 C 
BRANCH  25  26
HETATM   26  O4  UNL     1       4.680   1.992  -0.110  1.00  0.00    -0.220 OA
BRANCH  26  27
HETATM   27  O5  UNL     1       5.835   1.608   0.404  1.00  0.00    -0.127 OA
BRANCH  27  28
HETATM   28  N4  UNL     1       6.657   2.674   0.241  1.00  0.00    -0.105 NA
HETATM   29  H15 UNL     1       6.934   2.979   1.202  1.00  0.00     0.177 HD
BRANCH  28  30
HETATM   30  N5  UNL     1       7.815   2.203  -0.395  1.00  0.00    -0.245 NA
HETATM   31  H16 UNL     1       8.510   2.984  -0.396  1.00  0.00     0.139 HD
HETATM   32  H17 UNL     1       7.569   2.036  -1.397  1.00  0.00     0.139 HD
ENDBRANCH  28  30
ENDBRANCH  27  28
ENDBRANCH  26  27
ENDBRANCH  25  26
ENDBRANCH  10  25
TORSDOF 8
