REMARK  7 active torsions:
REMARK  status: ('A' for Active; 'I' for Inactive)
REMARK    1  A    between atoms: O1_2  and  C2_3 
REMARK    2  A    between atoms: C3_4  and  C14_22 
REMARK       I    between atoms: N1_7  and  C5_8 
REMARK    3  A    between atoms: C5_8  and  C6_10 
REMARK    4  A    between atoms: C6_10  and  N2_11 
REMARK    5  A    between atoms: C6_10  and  C11_19 
REMARK       I    between atoms: N2_11  and  C7_12 
REMARK    6  A    between atoms: C7_12  and  C8_14 
REMARK    7  A    between atoms: C14_22  and  O6_24 
ROOT
HETATM    1  C2  UNL     1       3.181  -0.497  -0.490  1.00  0.00     0.256 A 
HETATM    2  C3  UNL     1       3.821  -0.182   0.769  1.00  0.00     0.225 A 
HETATM    3  C4  UNL     1       2.472   0.146   1.326  1.00  0.00     0.247 A 
HETATM    4  O2  UNL     1       2.040   0.545   2.440  1.00  0.00    -0.272 OA
HETATM    5  N1  UNL     1       1.859  -0.186   0.019  1.00  0.00    -0.257 N 
HETATM    6  C5  UNL     1       0.533  -0.202  -0.514  1.00  0.00     0.251 C 
HETATM    7  O3  UNL     1       0.353  -0.559  -1.709  1.00  0.00    -0.271 OA
ENDROOT
BRANCH   6   8
HETATM    8  C6  UNL     1      -0.630   0.253   0.334  1.00  0.00     0.181 C 
BRANCH   8   9
HETATM    9  N2  UNL     1      -1.889  -0.330  -0.152  1.00  0.00    -0.342 N 
HETATM   10  C7  UNL     1      -2.844  -0.961   0.720  1.00  0.00     0.271 C 
HETATM   11  O4  UNL     1      -2.523  -1.238   1.907  1.00  0.00    -0.266 OA
HETATM   12  H7  UNL     1      -2.122  -0.220  -1.163  1.00  0.00     0.163 HD
BRANCH  10  13
HETATM   13  C8  UNL     1      -4.202  -1.306   0.255  1.00  0.00     0.131 A 
HETATM   14  C9  UNL     1      -4.756  -0.879  -0.953  1.00  0.00     0.088 A 
HETATM   15  S1  UNL     1      -6.317  -1.493  -1.044  1.00  0.00    -0.092 SA
HETATM   16  C10 UNL     1      -6.234  -2.269   0.441  1.00  0.00     0.166 A 
HETATM   17  N3  UNL     1      -5.031  -2.070   1.020  1.00  0.00    -0.248 NA
ENDBRANCH  10  13
ENDBRANCH   8   9
BRANCH   8  18
HETATM   18  C11 UNL     1      -0.711   1.802   0.392  1.00  0.00     0.009 C 
HETATM   19  C12 UNL     1      -1.027   2.441  -0.971  1.00  0.00     0.012 C 
HETATM   20  C13 UNL     1      -1.734   2.261   1.440  1.00  0.00     0.012 C 
ENDBRANCH   8  18
ENDBRANCH   6   8
BRANCH   1  21
HETATM   21  O1  UNL     1       3.549   0.436  -1.491  1.00  0.00    -0.369 OA
HETATM   22  C1  UNL     1       3.683  -0.213  -2.735  1.00  0.00     0.204 C 
ENDBRANCH   1  21
BRANCH   2  23
HETATM   23  C14 UNL     1       4.460  -1.362   1.450  1.00  0.00     0.157 C 
HETATM   24  O5  UNL     1       3.765  -2.344   1.831  1.00  0.00    -0.649 OA
BRANCH  23  25
HETATM   25  O6  UNL     1       5.839  -1.381   1.630  1.00  0.00    -0.776 OA
HETATM   26  H17 UNL     1       6.295  -2.168   2.076  1.00  0.00     0.167 HD
ENDBRANCH  23  25
ENDBRANCH   2  23
TORSDOF 7
