REMARK  6 active torsions:
REMARK  status: ('A' for Active; 'I' for Inactive)
REMARK    1  A    between atoms: C3_3  and  C17_24 
REMARK       I    between atoms: N1_6  and  C5_7 
REMARK    2  A    between atoms: C5_7  and  C6_9 
REMARK    3  A    between atoms: C6_9  and  N2_10 
REMARK    4  A    between atoms: C6_9  and  C11_18 
REMARK       I    between atoms: N2_10  and  C7_11 
REMARK    5  A    between atoms: C7_11  and  C8_13 
REMARK    6  A    between atoms: C17_24  and  O5_26 
ROOT
HETATM    1  C6  UNL     1      -0.147   0.629  -0.387  1.00  0.00     0.181 C 
ENDROOT
BRANCH   1   2
HETATM    2  C5  UNL     1       1.079   0.344   0.455  1.00  0.00     0.250 C 
HETATM    3  N1  UNL     1       2.148  -0.451  -0.066  1.00  0.00    -0.280 N 
HETATM    4  C2  UNL     1       3.379  -0.994   0.477  1.00  0.00     0.115 A 
HETATM    5  C4  UNL     1       2.497  -1.053  -1.376  1.00  0.00     0.243 A 
HETATM    6  C1  UNL     1       3.093  -2.005   1.594  1.00  0.00     0.034 C 
HETATM    7  C3  UNL     1       3.757  -1.605  -0.781  1.00  0.00     0.199 A 
HETATM    8  O1  UNL     1       1.962  -1.090  -2.514  1.00  0.00    -0.272 OA
HETATM    9  O2  UNL     1       1.153   0.769   1.639  1.00  0.00    -0.271 OA
BRANCH   7  10
HETATM   10  C17 UNL     1       4.996  -1.018  -1.400  1.00  0.00     0.155 C 
HETATM   11  O4  UNL     1       5.029   0.191  -1.759  1.00  0.00    -0.649 OA
BRANCH  10  12
HETATM   12  O5  UNL     1       6.127  -1.814  -1.546  1.00  0.00    -0.776 OA
HETATM   13  H21 UNL     1       6.977  -1.439  -1.951  1.00  0.00     0.167 HD
ENDBRANCH  10  12
ENDBRANCH   7  10
ENDBRANCH   1   2
BRANCH   1  14
HETATM   14  N2  UNL     1      -0.589   2.020  -0.216  1.00  0.00    -0.342 N 
HETATM   15  C7  UNL     1      -1.441   2.672  -1.174  1.00  0.00     0.271 C 
HETATM   16  O3  UNL     1      -1.649   2.134  -2.295  1.00  0.00    -0.266 OA
HETATM   17  H7  UNL     1      -0.289   2.549   0.633  1.00  0.00     0.163 HD
BRANCH  15  18
HETATM   18  C8  UNL     1      -2.076   3.973  -0.883  1.00  0.00     0.131 A 
HETATM   19  C9  UNL     1      -2.103   4.571   0.378  1.00  0.00     0.088 A 
HETATM   20  S1  UNL     1      -2.947   6.017   0.238  1.00  0.00    -0.092 SA
HETATM   21  C10 UNL     1      -3.246   5.830  -1.402  1.00  0.00     0.166 A 
HETATM   22  N3  UNL     1      -2.715   4.676  -1.859  1.00  0.00    -0.248 NA
ENDBRANCH  15  18
ENDBRANCH   1  14
BRANCH   1  23
HETATM   23  C11 UNL     1      -1.318  -0.353  -0.099  1.00  0.00     0.018 C 
HETATM   24  C12 UNL     1      -1.989  -0.115   1.283  1.00  0.00     0.007 C 
HETATM   25  C13 UNL     1      -2.715  -1.359   1.834  1.00  0.00     0.000 C 
HETATM   26  C14 UNL     1      -3.250  -2.249   0.710  1.00  0.00     0.000 C 
HETATM   27  C15 UNL     1      -2.115  -2.777  -0.190  1.00  0.00     0.000 C 
HETATM   28  C16 UNL     1      -0.901  -1.829  -0.270  1.00  0.00     0.007 C 
ENDBRANCH   1  23
TORSDOF 6
