REMARK  3 active torsions:
REMARK  status: ('A' for Active; 'I' for Inactive)
REMARK    1  A    between atoms: C6_9  and  N2_10 
REMARK       I    between atoms: N2_10  and  C7_11 
REMARK    2  A    between atoms: C7_11  and  C8_13 
REMARK    3  A    between atoms: N3_15  and  C10_16 
ROOT
HETATM    1  N2  UNL     1      -1.124  -0.779  -0.501  1.00  0.00    -0.342 N 
HETATM    2  C7  UNL     1       0.160  -0.673   0.242  1.00  0.00     0.258 C 
HETATM    3  O3  UNL     1      -0.001  -0.477   1.414  1.00  0.00    -0.267 OA
HETATM    4  H7  UNL     1      -1.120  -0.939  -1.521  1.00  0.00     0.163 HD
ENDROOT
BRANCH   1   5
HETATM    5  C6  UNL     1      -2.312  -0.639   0.301  1.00  0.00     0.191 C 
HETATM    6  C5  UNL     1      -2.759   0.850   0.149  1.00  0.00     0.251 C 
HETATM    7  N1  UNL     1      -4.120   1.107   0.085  1.00  0.00    -0.280 N 
HETATM    8  O2  UNL     1      -1.823   1.668   0.100  1.00  0.00    -0.271 OA
HETATM    9  C2  UNL     1      -5.173   1.539   1.026  1.00  0.00     0.114 C 
HETATM   10  C4  UNL     1      -5.200   0.941  -0.821  1.00  0.00     0.242 C 
HETATM   11  C1  UNL     1      -5.894   2.764   0.588  1.00  0.00     0.034 C 
HETATM   12  C3  UNL     1      -5.838   0.237   0.395  1.00  0.00     0.163 C 
HETATM   13  S2  UNL     1      -4.891  -1.177   0.920  1.00  0.00    -0.145 SA
HETATM   14  C15 UNL     1      -3.479  -1.470  -0.150  1.00  0.00     0.076 C 
HETATM   15  C16 UNL     1      -3.139  -2.941  -0.150  1.00  0.00     0.024 C 
HETATM   16  O1  UNL     1      -5.715   1.100  -1.936  1.00  0.00    -0.272 OA
ENDBRANCH   1   5
BRANCH   2  17
HETATM   17  C8  UNL     1       1.297  -0.846  -0.695  1.00  0.00     0.092 A 
HETATM   18  C9  UNL     1       2.577  -0.560   0.227  1.00  0.00     0.213 A 
HETATM   19  N3  UNL     1       3.583  -0.714  -0.609  1.00  0.00    -0.334 N 
HETATM   20  S1  UNL     1       2.555  -1.036  -1.731  1.00  0.00    -0.059 SA
BRANCH  19  21
HETATM   21  C10 UNL     1       5.039  -0.613  -0.504  1.00  0.00     0.092 C 
HETATM   22  C11 UNL     1       5.486  -0.418   0.921  1.00  0.00     0.026 C 
HETATM   23  C12 UNL     1       6.739   0.448   0.852  1.00  0.00     0.002 C 
HETATM   24  C13 UNL     1       6.950   0.747  -0.619  1.00  0.00     0.002 C 
HETATM   25  C14 UNL     1       5.533   0.670  -1.149  1.00  0.00     0.026 C 
ENDBRANCH  19  21
ENDBRANCH   2  17
TORSDOF 3
