REMARK  3 active torsions:
REMARK  status: ('A' for Active; 'I' for Inactive)
REMARK    1  A    between atoms: C5_9  and  N2_10 
REMARK       I    between atoms: N2_10  and  C6_11 
REMARK    2  A    between atoms: C6_11  and  C7_13 
REMARK    3  A    between atoms: N3_15  and  C9_16 
ROOT
HETATM    1  N2  UNL     1      -1.083   0.495  -0.130  1.00  0.00    -0.343 N 
HETATM    2  C6  UNL     1      -0.148   1.379   0.505  1.00  0.00     0.262 C 
HETATM    3  O3  UNL     1      -0.554   2.368   1.173  1.00  0.00    -0.267 OA
HETATM    4  H4  UNL     1      -0.711  -0.357  -0.610  1.00  0.00     0.163 HD
ENDROOT
BRANCH   1   5
HETATM    5  C5  UNL     1      -2.535   0.625   0.046  1.00  0.00     0.185 C 
HETATM    6  C4  UNL     1      -3.259   0.178  -1.207  1.00  0.00     0.232 C 
HETATM    7  N1  UNL     1      -4.658  -0.012  -1.118  1.00  0.00    -0.151 NA
HETATM    8  O2  UNL     1      -2.666   0.034  -2.309  1.00  0.00    -0.277 OA
HETATM    9  C1  UNL     1      -5.604   0.875  -0.471  1.00  0.00     0.282 C 
HETATM   10  C3  UNL     1      -5.330  -1.105  -0.387  1.00  0.00     0.227 C 
HETATM   11  F1  UNL     1      -6.712   1.087  -1.280  1.00  0.00    -0.230 F 
HETATM   12  C2  UNL     1      -5.857  -0.087   0.557  1.00  0.00     0.184 C 
HETATM   13  S2  UNL     1      -4.711   0.174   1.988  1.00  0.00    -0.144 SA
HETATM   14  C15 UNL     1      -2.983  -0.147   1.333  1.00  0.00     0.075 C 
HETATM   15  C16 UNL     1      -2.653  -1.647   1.289  1.00  0.00     0.024 C 
HETATM   16  O1  UNL     1      -5.375  -2.359  -0.481  1.00  0.00    -0.278 OA
ENDBRANCH   1   5
BRANCH   2  17
HETATM   17  C7  UNL     1       1.292   1.138   0.387  1.00  0.00     0.106 A 
HETATM   18  C8  UNL     1       2.094   0.150  -0.265  1.00  0.00     0.131 A 
HETATM   19  N3  UNL     1       3.325   0.659   0.126  1.00  0.00    -0.291 N 
HETATM   20  S1  UNL     1       2.624   1.896   0.952  1.00  0.00    -0.001 SA
BRANCH  19  21
HETATM   21  C9  UNL     1       4.683   0.261  -0.102  1.00  0.00     0.045 A 
HETATM   22  C10 UNL     1       5.741   1.005   0.445  1.00  0.00     0.030 A 
HETATM   23  C11 UNL     1       7.065   0.616   0.222  1.00  0.00     0.002 A 
HETATM   24  C12 UNL     1       7.342  -0.518  -0.547  1.00  0.00     0.000 A 
HETATM   25  C13 UNL     1       6.295  -1.263  -1.094  1.00  0.00     0.002 A 
HETATM   26  C14 UNL     1       4.969  -0.877  -0.873  1.00  0.00     0.030 A 
ENDBRANCH  19  21
ENDBRANCH   2  17
TORSDOF 3
