MODEL 1
REMARK VINA RESULT:    -8.162      0.000      0.000
REMARK INTER + INTRA:         -11.283
REMARK INTER:                 -11.017
REMARK INTRA:                  -0.266
REMARK UNBOUND:                -0.497
REMARK  6 active torsions:
REMARK  status: ('A' for Active; 'I' for Inactive)
REMARK    1  A    between atoms: C3_3  and  C17_24 
REMARK       I    between atoms: N1_6  and  C5_7 
REMARK    2  A    between atoms: C5_7  and  C6_9 
REMARK    3  A    between atoms: C6_9  and  N2_10 
REMARK    4  A    between atoms: C6_9  and  C11_18 
REMARK       I    between atoms: N2_10  and  C7_11 
REMARK    5  A    between atoms: C7_11  and  C8_13 
REMARK    6  A    between atoms: C17_24  and  O5_26 
ROOT
HETATM    1  C6  UNL     1      12.922  14.391  15.316  1.00  0.00     0.181 C 
ENDROOT
BRANCH   1   2
HETATM    2  C5  UNL     1      12.795  14.764  16.778  1.00  0.00     0.250 C 
HETATM    3  N1  UNL     1      13.890  15.372  17.469  1.00  0.00    -0.280 N 
HETATM    4  C2  UNL     1      14.149  15.750  18.846  1.00  0.00     0.115 A 
HETATM    5  C4  UNL     1      15.225  15.906  17.105  1.00  0.00     0.243 A 
HETATM    6  C1  UNL     1      14.177  14.520  19.762  1.00  0.00     0.034 C 
HETATM    7  C3  UNL     1      15.462  16.277  18.537  1.00  0.00     0.199 A 
HETATM    8  O1  UNL     1      15.887  16.007  16.040  1.00  0.00    -0.272 OA
HETATM    9  O2  UNL     1      11.738  14.504  17.414  1.00  0.00    -0.271 OA
BRANCH   7  10
HETATM   10  C17 UNL     1      15.589  17.763  18.738  1.00  0.00     0.155 C 
HETATM   11  O4  UNL     1      14.645  18.540  18.426  1.00  0.00    -0.649 OA
BRANCH  10  12
HETATM   12  O5  UNL     1      16.750  18.277  19.305  1.00  0.00    -0.776 OA
HETATM   13  H21 UNL     1      16.844  18.358  20.311  1.00  0.00     0.167 HD
ENDBRANCH  10  12
ENDBRANCH   7  10
ENDBRANCH   1   2
BRANCH   1  14
HETATM   14  N2  UNL     1      11.619  13.999  14.760  1.00  0.00    -0.342 N 
HETATM   15  C7  UNL     1      11.005  14.719  13.677  1.00  0.00     0.271 C 
HETATM   16  O3  UNL     1      11.470  15.837  13.326  1.00  0.00    -0.266 OA
HETATM   17  H7  UNL     1      11.129  13.164  15.151  1.00  0.00     0.163 HD
BRANCH  15  18
HETATM   18  C8  UNL     1       9.827  14.185  12.965  1.00  0.00     0.131 A 
HETATM   19  C9  UNL     1       8.818  13.432  13.567  1.00  0.00     0.088 A 
HETATM   20  S1  UNL     1       7.706  13.025  12.375  1.00  0.00    -0.092 SA
HETATM   21  C10 UNL     1       8.540  13.811  11.151  1.00  0.00     0.166 A 
HETATM   22  N3  UNL     1       9.665  14.385  11.627  1.00  0.00    -0.248 NA
ENDBRANCH  15  18
ENDBRANCH   1  14
BRANCH   1  23
HETATM   23  C11 UNL     1      13.978  13.277  15.067  1.00  0.00     0.018 C 
HETATM   24  C12 UNL     1      14.344  13.108  13.565  1.00  0.00     0.007 C 
HETATM   25  C13 UNL     1      14.902  11.711  13.225  1.00  0.00     0.000 C 
HETATM   26  C14 UNL     1      15.641  11.089  14.412  1.00  0.00     0.000 C 
HETATM   27  C15 UNL     1      14.710  10.896  15.626  1.00  0.00     0.000 C 
HETATM   28  C16 UNL     1      13.567  11.929  15.696  1.00  0.00     0.007 C 
ENDBRANCH   1  23
TORSDOF 6
ENDMDL
MODEL 2
REMARK VINA RESULT:    -7.979      3.071      6.566
REMARK INTER + INTRA:         -11.041
REMARK INTER:                 -10.585
REMARK INTRA:                  -0.457
REMARK UNBOUND:                -0.497
REMARK  6 active torsions:
REMARK  status: ('A' for Active; 'I' for Inactive)
REMARK    1  A    between atoms: C3_3  and  C17_24 
REMARK       I    between atoms: N1_6  and  C5_7 
REMARK    2  A    between atoms: C5_7  and  C6_9 
REMARK    3  A    between atoms: C6_9  and  N2_10 
REMARK    4  A    between atoms: C6_9  and  C11_18 
REMARK       I    between atoms: N2_10  and  C7_11 
REMARK    5  A    between atoms: C7_11  and  C8_13 
REMARK    6  A    between atoms: C17_24  and  O5_26 
ROOT
HETATM    1  C6  UNL     1      13.227  13.696  15.315  1.00  0.00     0.181 C 
ENDROOT
BRANCH   1   2
HETATM    2  C5  UNL     1      12.404  14.314  14.203  1.00  0.00     0.250 C 
HETATM    3  N1  UNL     1      10.976  14.319  14.275  1.00  0.00    -0.280 N 
HETATM    4  C2  UNL     1       9.907  14.714  13.376  1.00  0.00     0.115 A 
HETATM    5  C4  UNL     1       9.951  13.954  15.283  1.00  0.00     0.243 A 
HETATM    6  C1  UNL     1       9.900  13.849  12.110  1.00  0.00     0.034 C 
HETATM    7  C3  UNL     1       8.872  14.364  14.328  1.00  0.00     0.199 A 
HETATM    8  O1  UNL     1       9.973  13.491  16.453  1.00  0.00    -0.272 OA
HETATM    9  O2  UNL     1      12.968  14.795  13.184  1.00  0.00    -0.271 OA
BRANCH   7  10
HETATM   10  C17 UNL     1       8.074  15.539  14.824  1.00  0.00     0.155 C 
HETATM   11  O4  UNL     1       7.063  15.948  14.191  1.00  0.00    -0.649 OA
BRANCH  10  12
HETATM   12  O5  UNL     1       8.441  16.157  16.015  1.00  0.00    -0.776 OA
HETATM   13  H21 UNL     1       9.411  16.186  16.307  1.00  0.00     0.167 HD
ENDBRANCH  10  12
ENDBRANCH   7  10
ENDBRANCH   1   2
BRANCH   1  14
HETATM   14  N2  UNL     1      13.971  14.727  16.052  1.00  0.00    -0.342 N 
HETATM   15  C7  UNL     1      13.577  15.156  17.367  1.00  0.00     0.271 C 
HETATM   16  O3  UNL     1      12.454  14.814  17.828  1.00  0.00    -0.266 OA
HETATM   17  H7  UNL     1      14.820  15.151  15.617  1.00  0.00     0.163 HD
BRANCH  15  18
HETATM   18  C8  UNL     1      14.455  16.004  18.198  1.00  0.00     0.131 A 
HETATM   19  C9  UNL     1      15.111  17.147  17.736  1.00  0.00     0.088 A 
HETATM   20  S1  UNL     1      16.010  17.769  19.013  1.00  0.00    -0.092 SA
HETATM   21  C10 UNL     1      15.540  16.574  20.092  1.00  0.00     0.166 A 
HETATM   22  N3  UNL     1      14.703  15.694  19.501  1.00  0.00    -0.248 NA
ENDBRANCH  15  18
ENDBRANCH   1  14
BRANCH   1  23
HETATM   23  C11 UNL     1      14.192  12.588  14.806  1.00  0.00     0.018 C 
HETATM   24  C12 UNL     1      13.966  11.215  15.498  1.00  0.00     0.007 C 
HETATM   25  C13 UNL     1      15.205  10.299  15.462  1.00  0.00     0.000 C 
HETATM   26  C14 UNL     1      16.066  10.556  14.224  1.00  0.00     0.000 C 
HETATM   27  C15 UNL     1      16.599  12.002  14.188  1.00  0.00     0.000 C 
HETATM   28  C16 UNL     1      15.672  13.017  14.887  1.00  0.00     0.007 C 
ENDBRANCH   1  23
TORSDOF 6
ENDMDL
MODEL 3
REMARK VINA RESULT:    -7.678      3.751      6.254
REMARK INTER + INTRA:         -10.643
REMARK INTER:                 -10.413
REMARK INTRA:                  -0.229
REMARK UNBOUND:                -0.497
REMARK  6 active torsions:
REMARK  status: ('A' for Active; 'I' for Inactive)
REMARK    1  A    between atoms: C3_3  and  C17_24 
REMARK       I    between atoms: N1_6  and  C5_7 
REMARK    2  A    between atoms: C5_7  and  C6_9 
REMARK    3  A    between atoms: C6_9  and  N2_10 
REMARK    4  A    between atoms: C6_9  and  C11_18 
REMARK       I    between atoms: N2_10  and  C7_11 
REMARK    5  A    between atoms: C7_11  and  C8_13 
REMARK    6  A    between atoms: C17_24  and  O5_26 
ROOT
HETATM    1  C6  UNL     1      11.620  14.657  12.398  1.00  0.00     0.181 C 
ENDROOT
BRANCH   1   2
HETATM    2  C5  UNL     1      12.408  14.619  13.691  1.00  0.00     0.250 C 
HETATM    3  N1  UNL     1      13.107  13.433  14.080  1.00  0.00    -0.280 N 
HETATM    4  C2  UNL     1      13.847  13.021  15.258  1.00  0.00     0.115 A 
HETATM    5  C4  UNL     1      13.413  12.118  13.466  1.00  0.00     0.243 A 
HETATM    6  C1  UNL     1      12.937  12.960  16.491  1.00  0.00     0.034 C 
HETATM    7  C3  UNL     1      14.164  11.722  14.701  1.00  0.00     0.199 A 
HETATM    8  O1  UNL     1      13.152  11.561  12.369  1.00  0.00    -0.272 OA
HETATM    9  O2  UNL     1      12.423  15.618  14.459  1.00  0.00    -0.271 OA
BRANCH   7  10
HETATM   10  C17 UNL     1      15.630  11.506  14.444  1.00  0.00     0.155 C 
HETATM   11  O4  UNL     1      16.063  10.380  14.075  1.00  0.00    -0.649 OA
BRANCH  10  12
HETATM   12  O5  UNL     1      16.511  12.574  14.584  1.00  0.00    -0.776 OA
HETATM   13  H21 UNL     1      17.097  12.658  15.406  1.00  0.00     0.167 HD
ENDBRANCH  10  12
ENDBRANCH   7  10
ENDBRANCH   1   2
BRANCH   1  14
HETATM   14  N2  UNL     1      12.053  15.778  11.553  1.00  0.00    -0.342 N 
HETATM   15  C7  UNL     1      13.305  15.759  10.844  1.00  0.00     0.271 C 
HETATM   16  O3  UNL     1      14.161  14.872  11.109  1.00  0.00    -0.266 OA
HETATM   17  H7  UNL     1      11.428  16.608  11.449  1.00  0.00     0.163 HD
BRANCH  15  18
HETATM   18  C8  UNL     1      13.624  16.768   9.814  1.00  0.00     0.131 A 
HETATM   19  C9  UNL     1      12.669  17.513   9.120  1.00  0.00     0.088 A 
HETATM   20  S1  UNL     1      13.486  18.507   8.040  1.00  0.00    -0.092 SA
HETATM   21  C10 UNL     1      15.006  17.957   8.487  1.00  0.00     0.166 A 
HETATM   22  N3  UNL     1      14.913  17.018   9.453  1.00  0.00    -0.248 NA
ENDBRANCH  15  18
ENDBRANCH   1  14
BRANCH   1  23
HETATM   23  C11 UNL     1      10.084  14.712  12.630  1.00  0.00     0.018 C 
HETATM   24  C12 UNL     1       9.455  13.315  12.896  1.00  0.00     0.007 C 
HETATM   25  C13 UNL     1       7.951  13.246  12.563  1.00  0.00     0.000 C 
HETATM   26  C14 UNL     1       7.264  14.599  12.758  1.00  0.00     0.000 C 
HETATM   27  C15 UNL     1       7.859  15.681  11.836  1.00  0.00     0.000 C 
HETATM   28  C16 UNL     1       9.345  15.449  11.493  1.00  0.00     0.007 C 
ENDBRANCH   1  23
TORSDOF 6
ENDMDL
MODEL 4
REMARK VINA RESULT:    -7.499      3.961      7.559
REMARK INTER + INTRA:         -10.407
REMARK INTER:                  -9.948
REMARK INTRA:                  -0.459
REMARK UNBOUND:                -0.497
REMARK  6 active torsions:
REMARK  status: ('A' for Active; 'I' for Inactive)
REMARK    1  A    between atoms: C3_3  and  C17_24 
REMARK       I    between atoms: N1_6  and  C5_7 
REMARK    2  A    between atoms: C5_7  and  C6_9 
REMARK    3  A    between atoms: C6_9  and  N2_10 
REMARK    4  A    between atoms: C6_9  and  C11_18 
REMARK       I    between atoms: N2_10  and  C7_11 
REMARK    5  A    between atoms: C7_11  and  C8_13 
REMARK    6  A    between atoms: C17_24  and  O5_26 
ROOT
HETATM    1  C6  UNL     1      11.905  14.485  13.419  1.00  0.00     0.181 C 
ENDROOT
BRANCH   1   2
HETATM    2  C5  UNL     1      10.431  14.247  13.675  1.00  0.00     0.250 C 
HETATM    3  N1  UNL     1       9.457  14.604  12.690  1.00  0.00    -0.280 N 
HETATM    4  C2  UNL     1       8.007  14.617  12.641  1.00  0.00     0.115 A 
HETATM    5  C4  UNL     1       9.478  15.090  11.288  1.00  0.00     0.243 A 
HETATM    6  C1  UNL     1       7.428  15.608  13.657  1.00  0.00     0.034 C 
HETATM    7  C3  UNL     1       7.979  15.098  11.275  1.00  0.00     0.199 A 
HETATM    8  O1  UNL     1      10.375  15.379  10.455  1.00  0.00    -0.272 OA
HETATM    9  O2  UNL     1      10.043  13.771  14.775  1.00  0.00    -0.271 OA
BRANCH   7  10
HETATM   10  C17 UNL     1       7.403  14.117  10.291  1.00  0.00     0.155 C 
HETATM   11  O4  UNL     1       6.217  13.703  10.409  1.00  0.00    -0.649 OA
BRANCH  10  12
HETATM   12  O5  UNL     1       8.181  13.689   9.220  1.00  0.00    -0.776 OA
HETATM   13  H21 UNL     1       9.104  13.299   9.373  1.00  0.00     0.167 HD
ENDBRANCH  10  12
ENDBRANCH   7  10
ENDBRANCH   1   2
BRANCH   1  14
HETATM   14  N2  UNL     1      12.724  13.461  14.082  1.00  0.00    -0.342 N 
HETATM   15  C7  UNL     1      13.362  12.402  13.347  1.00  0.00     0.271 C 
HETATM   16  O3  UNL     1      13.052  12.201  12.142  1.00  0.00    -0.266 OA
HETATM   17  H7  UNL     1      12.861  13.509  15.117  1.00  0.00     0.163 HD
BRANCH  15  18
HETATM   18  C8  UNL     1      14.372  11.526  13.975  1.00  0.00     0.131 A 
HETATM   19  C9  UNL     1      15.517  11.057  13.329  1.00  0.00     0.088 A 
HETATM   20  S1  UNL     1      16.352  10.084  14.415  1.00  0.00    -0.092 SA
HETATM   21  C10 UNL     1      15.237  10.290  15.651  1.00  0.00     0.166 A 
HETATM   22  N3  UNL     1      14.225  11.092  15.258  1.00  0.00    -0.248 NA
ENDBRANCH  15  18
ENDBRANCH   1  14
BRANCH   1  23
HETATM   23  C11 UNL     1      12.368  15.908  13.840  1.00  0.00     0.018 C 
HETATM   24  C12 UNL     1      12.714  16.821  12.630  1.00  0.00     0.007 C 
HETATM   25  C13 UNL     1      13.682  17.968  12.985  1.00  0.00     0.000 C 
HETATM   26  C14 UNL     1      13.524  18.416  14.440  1.00  0.00     0.000 C 
HETATM   27  C15 UNL     1      13.832  17.272  15.426  1.00  0.00     0.000 C 
HETATM   28  C16 UNL     1      13.526  15.871  14.860  1.00  0.00     0.007 C 
ENDBRANCH   1  23
TORSDOF 6
ENDMDL
MODEL 5
REMARK VINA RESULT:    -7.457      3.087      5.523
REMARK INTER + INTRA:         -10.351
REMARK INTER:                  -9.908
REMARK INTRA:                  -0.443
REMARK UNBOUND:                -0.497
REMARK  6 active torsions:
REMARK  status: ('A' for Active; 'I' for Inactive)
REMARK    1  A    between atoms: C3_3  and  C17_24 
REMARK       I    between atoms: N1_6  and  C5_7 
REMARK    2  A    between atoms: C5_7  and  C6_9 
REMARK    3  A    between atoms: C6_9  and  N2_10 
REMARK    4  A    between atoms: C6_9  and  C11_18 
REMARK       I    between atoms: N2_10  and  C7_11 
REMARK    5  A    between atoms: C7_11  and  C8_13 
REMARK    6  A    between atoms: C17_24  and  O5_26 
ROOT
HETATM    1  C6  UNL     1      11.192  13.728  14.765  1.00  0.00     0.181 C 
ENDROOT
BRANCH   1   2
HETATM    2  C5  UNL     1      11.439  15.003  15.544  1.00  0.00     0.250 C 
HETATM    3  N1  UNL     1      12.378  15.972  15.071  1.00  0.00    -0.280 N 
HETATM    4  C2  UNL     1      12.924  17.210  15.594  1.00  0.00     0.115 A 
HETATM    5  C4  UNL     1      13.191  16.169  13.845  1.00  0.00     0.243 A 
HETATM    6  C1  UNL     1      13.735  16.961  16.872  1.00  0.00     0.034 C 
HETATM    7  C3  UNL     1      13.740  17.440  14.420  1.00  0.00     0.199 A 
HETATM    8  O1  UNL     1      13.356  15.536  12.771  1.00  0.00    -0.272 OA
HETATM    9  O2  UNL     1      10.851  15.205  16.640  1.00  0.00    -0.271 OA
BRANCH   7  10
HETATM   10  C17 UNL     1      13.343  18.654  13.625  1.00  0.00     0.155 C 
HETATM   11  O4  UNL     1      13.987  19.734  13.729  1.00  0.00    -0.649 OA
BRANCH  10  12
HETATM   12  O5  UNL     1      12.272  18.570  12.742  1.00  0.00    -0.776 OA
HETATM   13  H21 UNL     1      12.428  18.496  11.743  1.00  0.00     0.167 HD
ENDBRANCH  10  12
ENDBRANCH   7  10
ENDBRANCH   1   2
BRANCH   1  14
HETATM   14  N2  UNL     1      12.460  13.131  14.322  1.00  0.00    -0.342 N 
HETATM   15  C7  UNL     1      13.345  12.457  15.234  1.00  0.00     0.271 C 
HETATM   16  O3  UNL     1      13.157  12.557  16.477  1.00  0.00    -0.266 OA
HETATM   17  H7  UNL     1      12.721  13.182  13.312  1.00  0.00     0.163 HD
BRANCH  15  18
HETATM   18  C8  UNL     1      14.486  11.654  14.752  1.00  0.00     0.131 A 
HETATM   19  C9  UNL     1      15.135  11.862  13.534  1.00  0.00     0.088 A 
HETATM   20  S1  UNL     1      16.346  10.705  13.398  1.00  0.00    -0.092 SA
HETATM   21  C10 UNL     1      16.002   9.989  14.876  1.00  0.00     0.166 A 
HETATM   22  N3  UNL     1      14.971  10.613  15.484  1.00  0.00    -0.248 NA
ENDBRANCH  15  18
ENDBRANCH   1  14
BRANCH   1  23
HETATM   23  C11 UNL     1      10.237  13.936  13.555  1.00  0.00     0.018 C 
HETATM   24  C12 UNL     1       8.790  13.436  13.827  1.00  0.00     0.007 C 
HETATM   25  C13 UNL     1       8.008  13.096  12.542  1.00  0.00     0.000 C 
HETATM   26  C14 UNL     1       8.462  13.952  11.357  1.00  0.00     0.000 C 
HETATM   27  C15 UNL     1       9.951  13.726  11.027  1.00  0.00     0.000 C 
HETATM   28  C16 UNL     1      10.801  13.332  12.252  1.00  0.00     0.007 C 
ENDBRANCH   1  23
TORSDOF 6
ENDMDL
MODEL 6
REMARK VINA RESULT:    -7.403      3.107      5.101
REMARK INTER + INTRA:         -10.280
REMARK INTER:                  -9.906
REMARK INTRA:                  -0.373
REMARK UNBOUND:                -0.497
REMARK  6 active torsions:
REMARK  status: ('A' for Active; 'I' for Inactive)
REMARK    1  A    between atoms: C3_3  and  C17_24 
REMARK       I    between atoms: N1_6  and  C5_7 
REMARK    2  A    between atoms: C5_7  and  C6_9 
REMARK    3  A    between atoms: C6_9  and  N2_10 
REMARK    4  A    between atoms: C6_9  and  C11_18 
REMARK       I    between atoms: N2_10  and  C7_11 
REMARK    5  A    between atoms: C7_11  and  C8_13 
REMARK    6  A    between atoms: C17_24  and  O5_26 
ROOT
HETATM    1  C6  UNL     1      12.546  16.086  13.462  1.00  0.00     0.181 C 
ENDROOT
BRANCH   1   2
HETATM    2  C5  UNL     1      13.242  15.354  14.590  1.00  0.00     0.250 C 
HETATM    3  N1  UNL     1      13.630  13.986  14.435  1.00  0.00    -0.280 N 
HETATM    4  C2  UNL     1      14.199  12.978  15.311  1.00  0.00     0.115 A 
HETATM    5  C4  UNL     1      13.655  12.996  13.331  1.00  0.00     0.243 A 
HETATM    6  C1  UNL     1      13.241  12.637  16.459  1.00  0.00     0.034 C 
HETATM    7  C3  UNL     1      14.235  11.977  14.264  1.00  0.00     0.199 A 
HETATM    8  O1  UNL     1      13.326  13.002  12.117  1.00  0.00    -0.272 OA
HETATM    9  O2  UNL     1      13.449  15.928  15.692  1.00  0.00    -0.271 OA
BRANCH   7  10
HETATM   10  C17 UNL     1      15.624  11.553  13.869  1.00  0.00     0.155 C 
HETATM   11  O4  UNL     1      15.803  10.667  12.989  1.00  0.00    -0.649 OA
BRANCH  10  12
HETATM   12  O5  UNL     1      16.719  12.172  14.461  1.00  0.00    -0.776 OA
HETATM   13  H21 UNL     1      16.868  13.170  14.362  1.00  0.00     0.167 HD
ENDBRANCH  10  12
ENDBRANCH   7  10
ENDBRANCH   1   2
BRANCH   1  14
HETATM   14  N2  UNL     1      11.544  15.226  12.817  1.00  0.00    -0.342 N 
HETATM   15  C7  UNL     1      10.192  15.137  13.300  1.00  0.00     0.271 C 
HETATM   16  O3  UNL     1       9.895  15.629  14.422  1.00  0.00    -0.266 OA
HETATM   17  H7  UNL     1      11.815  14.672  11.974  1.00  0.00     0.163 HD
BRANCH  15  18
HETATM   18  C8  UNL     1       9.134  14.470  12.515  1.00  0.00     0.131 A 
HETATM   19  C9  UNL     1       8.841  14.761  11.182  1.00  0.00     0.088 A 
HETATM   20  S1  UNL     1       7.558  13.780  10.717  1.00  0.00    -0.092 SA
HETATM   21  C10 UNL     1       7.423  13.032  12.212  1.00  0.00     0.166 A 
HETATM   22  N3  UNL     1       8.341  13.515  13.076  1.00  0.00    -0.248 NA
ENDBRANCH  15  18
ENDBRANCH   1  14
BRANCH   1  23
HETATM   23  C11 UNL     1      13.539  16.650  12.406  1.00  0.00     0.018 C 
HETATM   24  C12 UNL     1      13.761  18.183  12.533  1.00  0.00     0.007 C 
HETATM   25  C13 UNL     1      14.241  18.843  11.225  1.00  0.00     0.000 C 
HETATM   26  C14 UNL     1      15.066  17.878  10.370  1.00  0.00     0.000 C 
HETATM   27  C15 UNL     1      14.245  16.642   9.952  1.00  0.00     0.000 C 
HETATM   28  C16 UNL     1      13.146  16.260  10.965  1.00  0.00     0.007 C 
ENDBRANCH   1  23
TORSDOF 6
ENDMDL
MODEL 7
REMARK VINA RESULT:    -7.397      2.829      4.547
REMARK INTER + INTRA:         -10.272
REMARK INTER:                  -9.812
REMARK INTRA:                  -0.460
REMARK UNBOUND:                -0.497
REMARK  6 active torsions:
REMARK  status: ('A' for Active; 'I' for Inactive)
REMARK    1  A    between atoms: C3_3  and  C17_24 
REMARK       I    between atoms: N1_6  and  C5_7 
REMARK    2  A    between atoms: C5_7  and  C6_9 
REMARK    3  A    between atoms: C6_9  and  N2_10 
REMARK    4  A    between atoms: C6_9  and  C11_18 
REMARK       I    between atoms: N2_10  and  C7_11 
REMARK    5  A    between atoms: C7_11  and  C8_13 
REMARK    6  A    between atoms: C17_24  and  O5_26 
ROOT
HETATM    1  C6  UNL     1      11.715  14.697  12.822  1.00  0.00     0.181 C 
ENDROOT
BRANCH   1   2
HETATM    2  C5  UNL     1      12.309  13.551  13.615  1.00  0.00     0.250 C 
HETATM    3  N1  UNL     1      12.555  13.691  15.017  1.00  0.00    -0.280 N 
HETATM    4  C2  UNL     1      13.188  12.869  16.032  1.00  0.00     0.115 A 
HETATM    5  C4  UNL     1      12.264  14.703  16.062  1.00  0.00     0.243 A 
HETATM    6  C1  UNL     1      14.678  12.666  15.731  1.00  0.00     0.034 C 
HETATM    7  C3  UNL     1      12.931  13.832  17.084  1.00  0.00     0.199 A 
HETATM    8  O1  UNL     1      11.697  15.825  16.086  1.00  0.00    -0.272 OA
HETATM    9  O2  UNL     1      12.631  12.477  13.041  1.00  0.00    -0.271 OA
BRANCH   7  10
HETATM   10  C17 UNL     1      11.979  13.346  18.141  1.00  0.00     0.155 C 
HETATM   11  O4  UNL     1      12.158  13.635  19.356  1.00  0.00    -0.649 OA
BRANCH  10  12
HETATM   12  O5  UNL     1      10.870  12.595  17.766  1.00  0.00    -0.776 OA
HETATM   13  H21 UNL     1      10.977  11.651  17.413  1.00  0.00     0.167 HD
ENDBRANCH  10  12
ENDBRANCH   7  10
ENDBRANCH   1   2
BRANCH   1  14
HETATM   14  N2  UNL     1      10.438  14.305  12.211  1.00  0.00    -0.342 N 
HETATM   15  C7  UNL     1       9.177  14.538  12.864  1.00  0.00     0.271 C 
HETATM   16  O3  UNL     1       9.155  14.885  14.075  1.00  0.00    -0.266 OA
HETATM   17  H7  UNL     1      10.441  13.857  11.267  1.00  0.00     0.163 HD
BRANCH  15  18
HETATM   18  C8  UNL     1       7.895  14.368  12.151  1.00  0.00     0.131 A 
HETATM   19  C9  UNL     1       6.758  15.144  12.381  1.00  0.00     0.088 A 
HETATM   20  S1  UNL     1       5.543  14.581  11.367  1.00  0.00    -0.092 SA
HETATM   21  C10 UNL     1       6.497  13.383  10.681  1.00  0.00     0.166 A 
HETATM   22  N3  UNL     1       7.738  13.395  11.211  1.00  0.00    -0.248 NA
ENDBRANCH  15  18
ENDBRANCH   1  14
BRANCH   1  23
HETATM   23  C11 UNL     1      12.688  15.250  11.742  1.00  0.00     0.018 C 
HETATM   24  C12 UNL     1      14.097  15.587  12.305  1.00  0.00     0.007 C 
HETATM   25  C13 UNL     1      14.861  16.627  11.461  1.00  0.00     0.000 C 
HETATM   26  C14 UNL     1      14.470  16.558   9.983  1.00  0.00     0.000 C 
HETATM   27  C15 UNL     1      12.971  16.853   9.775  1.00  0.00     0.000 C 
HETATM   28  C16 UNL     1      12.092  16.450  10.976  1.00  0.00     0.007 C 
ENDBRANCH   1  23
TORSDOF 6
ENDMDL
MODEL 8
REMARK VINA RESULT:    -7.320      3.334      5.684
REMARK INTER + INTRA:         -10.171
REMARK INTER:                 -10.125
REMARK INTRA:                  -0.046
REMARK UNBOUND:                -0.497
REMARK  6 active torsions:
REMARK  status: ('A' for Active; 'I' for Inactive)
REMARK    1  A    between atoms: C3_3  and  C17_24 
REMARK       I    between atoms: N1_6  and  C5_7 
REMARK    2  A    between atoms: C5_7  and  C6_9 
REMARK    3  A    between atoms: C6_9  and  N2_10 
REMARK    4  A    between atoms: C6_9  and  C11_18 
REMARK       I    between atoms: N2_10  and  C7_11 
REMARK    5  A    between atoms: C7_11  and  C8_13 
REMARK    6  A    between atoms: C17_24  and  O5_26 
ROOT
HETATM    1  C6  UNL     1      12.087  13.864  11.984  1.00  0.00     0.181 C 
ENDROOT
BRANCH   1   2
HETATM    2  C5  UNL     1      12.675  12.909  13.002  1.00  0.00     0.250 C 
HETATM    3  N1  UNL     1      12.858  13.320  14.360  1.00  0.00    -0.280 N 
HETATM    4  C2  UNL     1      13.467  12.726  15.536  1.00  0.00     0.115 A 
HETATM    5  C4  UNL     1      12.497  14.501  15.182  1.00  0.00     0.243 A 
HETATM    6  C1  UNL     1      14.972  12.518  15.335  1.00  0.00     0.034 C 
HETATM    7  C3  UNL     1      13.141  13.862  16.375  1.00  0.00     0.199 A 
HETATM    8  O1  UNL     1      11.901  15.589  14.971  1.00  0.00    -0.272 OA
HETATM    9  O2  UNL     1      13.048  11.757  12.655  1.00  0.00    -0.271 OA
BRANCH   7  10
HETATM   10  C17 UNL     1      12.156  13.553  17.469  1.00  0.00     0.155 C 
HETATM   11  O4  UNL     1      12.235  14.126  18.591  1.00  0.00    -0.649 OA
BRANCH  10  12
HETATM   12  O5  UNL     1      11.128  12.649  17.226  1.00  0.00    -0.776 OA
HETATM   13  H21 UNL     1      11.253  11.885  16.571  1.00  0.00     0.167 HD
ENDBRANCH  10  12
ENDBRANCH   7  10
ENDBRANCH   1   2
BRANCH   1  14
HETATM   14  N2  UNL     1      12.432  15.255  12.309  1.00  0.00    -0.342 N 
HETATM   15  C7  UNL     1      13.581  15.908  11.741  1.00  0.00     0.271 C 
HETATM   16  O3  UNL     1      14.443  15.230  11.121  1.00  0.00    -0.266 OA
HETATM   17  H7  UNL     1      11.818  15.793  12.961  1.00  0.00     0.163 HD
BRANCH  15  18
HETATM   18  C8  UNL     1      13.787  17.364  11.876  1.00  0.00     0.131 A 
HETATM   19  C9  UNL     1      13.349  18.124  12.963  1.00  0.00     0.088 A 
HETATM   20  S1  UNL     1      13.780  19.722  12.674  1.00  0.00    -0.092 SA
HETATM   21  C10 UNL     1      14.497  19.393  11.194  1.00  0.00     0.166 A 
HETATM   22  N3  UNL     1      14.417  18.077  10.902  1.00  0.00    -0.248 NA
ENDBRANCH  15  18
ENDBRANCH   1  14
BRANCH   1  23
HETATM   23  C11 UNL     1      10.548  13.708  11.829  1.00  0.00     0.018 C 
HETATM   24  C12 UNL     1       9.875  14.931  11.145  1.00  0.00     0.007 C 
HETATM   25  C13 UNL     1       8.378  15.075  11.483  1.00  0.00     0.000 C 
HETATM   26  C14 UNL     1       7.724  13.719  11.756  1.00  0.00     0.000 C 
HETATM   27  C15 UNL     1       8.370  13.005  12.960  1.00  0.00     0.000 C 
HETATM   28  C16 UNL     1       9.856  13.364  13.164  1.00  0.00     0.007 C 
ENDBRANCH   1  23
TORSDOF 6
ENDMDL
MODEL 9
REMARK VINA RESULT:    -7.244      3.302      5.804
REMARK INTER + INTRA:         -10.069
REMARK INTER:                  -9.573
REMARK INTRA:                  -0.497
REMARK UNBOUND:                -0.497
REMARK  6 active torsions:
REMARK  status: ('A' for Active; 'I' for Inactive)
REMARK    1  A    between atoms: C3_3  and  C17_24 
REMARK       I    between atoms: N1_6  and  C5_7 
REMARK    2  A    between atoms: C5_7  and  C6_9 
REMARK    3  A    between atoms: C6_9  and  N2_10 
REMARK    4  A    between atoms: C6_9  and  C11_18 
REMARK       I    between atoms: N2_10  and  C7_11 
REMARK    5  A    between atoms: C7_11  and  C8_13 
REMARK    6  A    between atoms: C17_24  and  O5_26 
ROOT
HETATM    1  C6  UNL     1       9.935  15.168  13.724  1.00  0.00     0.181 C 
ENDROOT
BRANCH   1   2
HETATM    2  C5  UNL     1      11.302  14.765  13.212  1.00  0.00     0.250 C 
HETATM    3  N1  UNL     1      12.486  15.343  13.771  1.00  0.00    -0.280 N 
HETATM    4  C2  UNL     1      13.902  15.274  13.465  1.00  0.00     0.115 A 
HETATM    5  C4  UNL     1      12.807  16.238  14.910  1.00  0.00     0.243 A 
HETATM    6  C1  UNL     1      14.199  15.862  12.081  1.00  0.00     0.034 C 
HETATM    7  C3  UNL     1      14.262  16.150  14.561  1.00  0.00     0.199 A 
HETATM    8  O1  UNL     1      12.141  16.829  15.798  1.00  0.00    -0.272 OA
HETATM    9  O2  UNL     1      11.412  13.948  12.259  1.00  0.00    -0.271 OA
BRANCH   7  10
HETATM   10  C17 UNL     1      15.076  15.484  15.637  1.00  0.00     0.155 C 
HETATM   11  O4  UNL     1      16.307  15.261  15.472  1.00  0.00    -0.649 OA
BRANCH  10  12
HETATM   12  O5  UNL     1      14.467  15.142  16.839  1.00  0.00    -0.776 OA
HETATM   13  H21 UNL     1      14.488  14.187  17.178  1.00  0.00     0.167 HD
ENDBRANCH  10  12
ENDBRANCH   7  10
ENDBRANCH   1   2
BRANCH   1  14
HETATM   14  N2  UNL     1       9.708  14.646  15.079  1.00  0.00    -0.342 N 
HETATM   15  C7  UNL     1       9.028  15.414  16.087  1.00  0.00     0.271 C 
HETATM   16  O3  UNL     1       8.806  16.640  15.897  1.00  0.00    -0.266 OA
HETATM   17  H7  UNL     1      10.036  13.683  15.315  1.00  0.00     0.163 HD
BRANCH  15  18
HETATM   18  C8  UNL     1       8.589  14.802  17.358  1.00  0.00     0.131 A 
HETATM   19  C9  UNL     1       9.241  13.741  17.987  1.00  0.00     0.088 A 
HETATM   20  S1  UNL     1       8.378  13.366  19.379  1.00  0.00    -0.092 SA
HETATM   21  C10 UNL     1       7.217  14.552  19.131  1.00  0.00     0.166 A 
HETATM   22  N3  UNL     1       7.468  15.240  17.997  1.00  0.00    -0.248 NA
ENDBRANCH  15  18
ENDBRANCH   1  14
BRANCH   1  23
HETATM   23  C11 UNL     1       8.784  14.735  12.773  1.00  0.00     0.018 C 
HETATM   24  C12 UNL     1       7.573  15.710  12.795  1.00  0.00     0.007 C 
HETATM   25  C13 UNL     1       6.250  15.055  12.352  1.00  0.00     0.000 C 
HETATM   26  C14 UNL     1       6.484  13.926  11.345  1.00  0.00     0.000 C 
HETATM   27  C15 UNL     1       7.344  12.796  11.944  1.00  0.00     0.000 C 
HETATM   28  C16 UNL     1       8.332  13.280  13.025  1.00  0.00     0.007 C 
ENDBRANCH   1  23
TORSDOF 6
ENDMDL
