MODEL 1
REMARK VINA RESULT:    -7.737      0.000      0.000
REMARK INTER + INTRA:          -9.391
REMARK INTER:                  -9.151
REMARK INTRA:                  -0.240
REMARK UNBOUND:                -0.297
REMARK  3 active torsions:
REMARK  status: ('A' for Active; 'I' for Inactive)
REMARK    1  A    between atoms: C5_9  and  N2_10 
REMARK       I    between atoms: N2_10  and  C6_11 
REMARK    2  A    between atoms: C6_11  and  C7_13 
REMARK    3  A    between atoms: N3_15  and  C9_16 
ROOT
HETATM    1  N2  UNL     1       9.641  14.822  12.367  1.00  0.00    -0.343 N 
HETATM    2  C6  UNL     1      10.402  15.035  13.565  1.00  0.00     0.262 C 
HETATM    3  O3  UNL     1      10.077  15.943  14.377  1.00  0.00    -0.267 OA
HETATM    4  H4  UNL     1       9.895  14.011  11.757  1.00  0.00     0.163 HD
ENDROOT
BRANCH   1   5
HETATM    5  C5  UNL     1       8.405  15.560  12.076  1.00  0.00     0.185 C 
HETATM    6  C4  UNL     1       8.254  15.765  10.583  1.00  0.00     0.232 C 
HETATM    7  N1  UNL     1       6.999  16.220  10.113  1.00  0.00    -0.151 NA
HETATM    8  O2  UNL     1       9.212  15.599   9.783  1.00  0.00    -0.277 OA
HETATM    9  C1  UNL     1       6.202  17.284  10.689  1.00  0.00     0.282 C 
HETATM   10  C3  UNL     1       5.753  15.428  10.091  1.00  0.00     0.227 C 
HETATM   11  F1  UNL     1       5.738  18.141   9.701  1.00  0.00    -0.230 F 
HETATM   12  C2  UNL     1       5.203  16.352  11.115  1.00  0.00     0.184 C 
HETATM   13  S2  UNL     1       5.559  15.757  12.832  1.00  0.00    -0.144 SA
HETATM   14  C15 UNL     1       7.186  14.828  12.732  1.00  0.00     0.075 C 
HETATM   15  C16 UNL     1       6.997  13.389  12.228  1.00  0.00     0.024 C 
HETATM   16  O1  UNL     1       5.358  14.383   9.512  1.00  0.00    -0.278 OA
ENDBRANCH   1   5
BRANCH   2  17
HETATM   17  C7  UNL     1      11.565  14.195  13.859  1.00  0.00     0.106 A 
HETATM   18  C8  UNL     1      12.065  12.958  13.345  1.00  0.00     0.131 A 
HETATM   19  N3  UNL     1      13.182  12.883  14.166  1.00  0.00    -0.291 N 
HETATM   20  S1  UNL     1      12.809  14.301  14.912  1.00  0.00    -0.001 SA
BRANCH  19  21
HETATM   21  C9  UNL     1      14.249  11.937  14.309  1.00  0.00     0.045 A 
HETATM   22  C10 UNL     1      14.306  11.097  15.433  1.00  0.00     0.030 A 
HETATM   23  C11 UNL     1      15.347  10.174  15.571  1.00  0.00     0.002 A 
HETATM   24  C12 UNL     1      16.338  10.083  14.589  1.00  0.00     0.000 A 
HETATM   25  C13 UNL     1      16.288  10.916  13.468  1.00  0.00     0.002 A 
HETATM   26  C14 UNL     1      15.248  11.840  13.326  1.00  0.00     0.030 A 
ENDBRANCH  19  21
ENDBRANCH   2  17
TORSDOF 3
ENDMDL
MODEL 2
REMARK VINA RESULT:    -7.364      3.311      9.250
REMARK INTER + INTRA:          -8.952
REMARK INTER:                  -8.671
REMARK INTRA:                  -0.281
REMARK UNBOUND:                -0.297
REMARK  3 active torsions:
REMARK  status: ('A' for Active; 'I' for Inactive)
REMARK    1  A    between atoms: C5_9  and  N2_10 
REMARK       I    between atoms: N2_10  and  C6_11 
REMARK    2  A    between atoms: C6_11  and  C7_13 
REMARK    3  A    between atoms: N3_15  and  C9_16 
ROOT
HETATM    1  N2  UNL     1       9.529  14.613  13.457  1.00  0.00    -0.343 N 
HETATM    2  C6  UNL     1       8.307  13.991  13.034  1.00  0.00     0.262 C 
HETATM    3  O3  UNL     1       8.255  12.746  12.843  1.00  0.00    -0.267 OA
HETATM    4  H4  UNL     1       9.513  15.635  13.679  1.00  0.00     0.163 HD
ENDROOT
BRANCH   1   5
HETATM    5  C5  UNL     1      10.733  13.841  13.788  1.00  0.00     0.185 C 
HETATM    6  C4  UNL     1      11.748  13.941  12.668  1.00  0.00     0.232 C 
HETATM    7  N1  UNL     1      13.059  13.480  12.934  1.00  0.00    -0.151 NA
HETATM    8  O2  UNL     1      11.441  14.360  11.521  1.00  0.00    -0.277 OA
HETATM    9  C1  UNL     1      13.414  12.249  13.611  1.00  0.00     0.282 C 
HETATM   10  C3  UNL     1      14.035  14.139  13.825  1.00  0.00     0.227 C 
HETATM   11  F1  UNL     1      14.415  11.579  12.921  1.00  0.00    -0.230 F 
HETATM   12  C2  UNL     1      13.919  12.972  14.737  1.00  0.00     0.184 C 
HETATM   13  S2  UNL     1      12.588  13.223  15.999  1.00  0.00    -0.144 SA
HETATM   14  C15 UNL     1      11.291  14.301  15.177  1.00  0.00     0.075 C 
HETATM   15  C16 UNL     1      11.668  15.790  15.219  1.00  0.00     0.024 C 
HETATM   16  O1  UNL     1      14.643  15.241  13.840  1.00  0.00    -0.278 OA
ENDBRANCH   1   5
BRANCH   2  17
HETATM   17  C7  UNL     1       7.103  14.798  12.823  1.00  0.00     0.106 A 
HETATM   18  C8  UNL     1       6.555  15.964  13.443  1.00  0.00     0.131 A 
HETATM   19  N3  UNL     1       5.423  16.053  12.646  1.00  0.00    -0.291 N 
HETATM   20  S1  UNL     1       5.848  14.721  11.781  1.00  0.00    -0.001 SA
BRANCH  19  21
HETATM   21  C9  UNL     1       4.311  16.957  12.595  1.00  0.00     0.045 A 
HETATM   22  C10 UNL     1       3.231  16.803  13.479  1.00  0.00     0.030 A 
HETATM   23  C11 UNL     1       2.148  17.685  13.428  1.00  0.00     0.002 A 
HETATM   24  C12 UNL     1       2.136  18.727  12.496  1.00  0.00     0.000 A 
HETATM   25  C13 UNL     1       3.206  18.886  11.613  1.00  0.00     0.002 A 
HETATM   26  C14 UNL     1       4.292  18.006  11.661  1.00  0.00     0.030 A 
ENDBRANCH  19  21
ENDBRANCH   2  17
TORSDOF 3
ENDMDL
MODEL 3
REMARK VINA RESULT:    -7.362      2.754      3.588
REMARK INTER + INTRA:          -8.949
REMARK INTER:                  -8.680
REMARK INTRA:                  -0.270
REMARK UNBOUND:                -0.297
REMARK  3 active torsions:
REMARK  status: ('A' for Active; 'I' for Inactive)
REMARK    1  A    between atoms: C5_9  and  N2_10 
REMARK       I    between atoms: N2_10  and  C6_11 
REMARK    2  A    between atoms: C6_11  and  C7_13 
REMARK    3  A    between atoms: N3_15  and  C9_16 
ROOT
HETATM    1  N2  UNL     1       7.257  14.956  12.579  1.00  0.00    -0.343 N 
HETATM    2  C6  UNL     1       7.953  13.709  12.719  1.00  0.00     0.262 C 
HETATM    3  O3  UNL     1       7.355  12.617  12.521  1.00  0.00    -0.267 OA
HETATM    4  H4  UNL     1       7.805  15.842  12.675  1.00  0.00     0.163 HD
ENDROOT
BRANCH   1   5
HETATM    5  C5  UNL     1       5.870  15.036  12.102  1.00  0.00     0.185 C 
HETATM    6  C4  UNL     1       5.140  16.168  12.796  1.00  0.00     0.232 C 
HETATM    7  N1  UNL     1       3.885  16.552  12.269  1.00  0.00    -0.151 NA
HETATM    8  O2  UNL     1       5.589  16.716  13.838  1.00  0.00    -0.277 OA
HETATM    9  C1  UNL     1       2.822  15.661  11.851  1.00  0.00     0.282 C 
HETATM   10  C3  UNL     1       3.672  17.253  10.987  1.00  0.00     0.227 C 
HETATM   11  F1  UNL     1       1.598  16.088  12.349  1.00  0.00    -0.230 F 
HETATM   12  C2  UNL     1       3.008  16.026  10.480  1.00  0.00     0.184 C 
HETATM   13  S2  UNL     1       4.217  14.885   9.663  1.00  0.00    -0.144 SA
HETATM   14  C15 UNL     1       5.853  15.149  10.540  1.00  0.00     0.075 C 
HETATM   15  C16 UNL     1       6.598  16.385  10.011  1.00  0.00     0.024 C 
HETATM   16  O1  UNL     1       3.983  18.375  10.510  1.00  0.00    -0.278 OA
ENDBRANCH   1   5
BRANCH   2  17
HETATM   17  C7  UNL     1       9.369  13.692  13.090  1.00  0.00     0.106 A 
HETATM   18  C8  UNL     1      10.097  13.986  14.286  1.00  0.00     0.131 A 
HETATM   19  N3  UNL     1      11.360  13.718  13.775  1.00  0.00    -0.291 N 
HETATM   20  S1  UNL     1      10.751  13.328  12.298  1.00  0.00    -0.001 SA
BRANCH  19  21
HETATM   21  C9  UNL     1      12.684  13.763  14.322  1.00  0.00     0.045 A 
HETATM   22  C10 UNL     1      13.505  14.881  14.101  1.00  0.00     0.030 A 
HETATM   23  C11 UNL     1      14.796  14.924  14.635  1.00  0.00     0.002 A 
HETATM   24  C12 UNL     1      15.275  13.853  15.395  1.00  0.00     0.000 A 
HETATM   25  C13 UNL     1      14.464  12.738  15.620  1.00  0.00     0.002 A 
HETATM   26  C14 UNL     1      13.172  12.692  15.087  1.00  0.00     0.030 A 
ENDBRANCH  19  21
ENDBRANCH   2  17
TORSDOF 3
ENDMDL
MODEL 4
REMARK VINA RESULT:    -7.320      3.750      9.012
REMARK INTER + INTRA:          -8.900
REMARK INTER:                  -8.620
REMARK INTRA:                  -0.280
REMARK UNBOUND:                -0.297
REMARK  3 active torsions:
REMARK  status: ('A' for Active; 'I' for Inactive)
REMARK    1  A    between atoms: C5_9  and  N2_10 
REMARK       I    between atoms: N2_10  and  C6_11 
REMARK    2  A    between atoms: C6_11  and  C7_13 
REMARK    3  A    between atoms: N3_15  and  C9_16 
ROOT
HETATM    1  N2  UNL     1      10.870  14.700  13.596  1.00  0.00    -0.343 N 
HETATM    2  C6  UNL     1      10.284  13.924  12.540  1.00  0.00     0.262 C 
HETATM    3  O3  UNL     1      10.937  12.998  11.988  1.00  0.00    -0.267 OA
HETATM    4  H4  UNL     1      10.271  15.407  14.081  1.00  0.00     0.163 HD
ENDROOT
BRANCH   1   5
HETATM    5  C5  UNL     1      12.194  14.398  14.155  1.00  0.00     0.185 C 
HETATM    6  C4  UNL     1      12.909  15.677  14.535  1.00  0.00     0.232 C 
HETATM    7  N1  UNL     1      14.076  15.561  15.326  1.00  0.00    -0.151 NA
HETATM    8  O2  UNL     1      12.529  16.806  14.123  1.00  0.00    -0.277 OA
HETATM    9  C1  UNL     1      15.152  14.609  15.131  1.00  0.00     0.282 C 
HETATM   10  C3  UNL     1      14.112  15.164  16.748  1.00  0.00     0.227 C 
HETATM   11  F1  UNL     1      16.386  15.238  15.220  1.00  0.00    -0.230 F 
HETATM   12  C2  UNL     1      14.805  13.918  16.335  1.00  0.00     0.184 C 
HETATM   13  S2  UNL     1      13.603  12.555  15.979  1.00  0.00    -0.144 SA
HETATM   14  C15 UNL     1      12.048  13.389  15.344  1.00  0.00     0.075 C 
HETATM   15  C16 UNL     1      11.171  13.919  16.488  1.00  0.00     0.024 C 
HETATM   16  O1  UNL     1      13.678  15.641  17.829  1.00  0.00    -0.278 OA
ENDBRANCH   1   5
BRANCH   2  17
HETATM   17  C7  UNL     1       8.916  14.198  12.095  1.00  0.00     0.106 A 
HETATM   18  C8  UNL     1       7.617  13.789  12.533  1.00  0.00     0.131 A 
HETATM   19  N3  UNL     1       6.897  14.493  11.578  1.00  0.00    -0.291 N 
HETATM   20  S1  UNL     1       8.266  15.097  10.896  1.00  0.00    -0.001 SA
BRANCH  19  21
HETATM   21  C9  UNL     1       5.499  14.639  11.295  1.00  0.00     0.045 A 
HETATM   22  C10 UNL     1       4.756  15.662  11.904  1.00  0.00     0.030 A 
HETATM   23  C11 UNL     1       3.393  15.804  11.628  1.00  0.00     0.002 A 
HETATM   24  C12 UNL     1       2.763  14.926  10.741  1.00  0.00     0.000 A 
HETATM   25  C13 UNL     1       3.496  13.906  10.130  1.00  0.00     0.002 A 
HETATM   26  C14 UNL     1       4.860  13.761  10.404  1.00  0.00     0.030 A 
ENDBRANCH  19  21
ENDBRANCH   2  17
TORSDOF 3
ENDMDL
MODEL 5
REMARK VINA RESULT:    -7.159      2.117      3.045
REMARK INTER + INTRA:          -8.711
REMARK INTER:                  -8.431
REMARK INTRA:                  -0.280
REMARK UNBOUND:                -0.297
REMARK  3 active torsions:
REMARK  status: ('A' for Active; 'I' for Inactive)
REMARK    1  A    between atoms: C5_9  and  N2_10 
REMARK       I    between atoms: N2_10  and  C6_11 
REMARK    2  A    between atoms: C6_11  and  C7_13 
REMARK    3  A    between atoms: N3_15  and  C9_16 
ROOT
HETATM    1  N2  UNL     1       7.577  15.113  11.612  1.00  0.00    -0.343 N 
HETATM    2  C6  UNL     1       8.895  14.991  11.058  1.00  0.00     0.262 C 
HETATM    3  O3  UNL     1       9.113  15.289   9.853  1.00  0.00    -0.267 OA
HETATM    4  H4  UNL     1       7.452  14.930  12.635  1.00  0.00     0.163 HD
ENDROOT
BRANCH   1   5
HETATM    5  C5  UNL     1       6.454  15.682  10.857  1.00  0.00     0.185 C 
HETATM    6  C4  UNL     1       5.562  14.578  10.329  1.00  0.00     0.232 C 
HETATM    7  N1  UNL     1       4.301  14.952   9.809  1.00  0.00    -0.151 NA
HETATM    8  O2  UNL     1       5.935  13.375  10.290  1.00  0.00    -0.277 OA
HETATM    9  C1  UNL     1       4.036  16.065   8.919  1.00  0.00     0.282 C 
HETATM   10  C3  UNL     1       3.157  15.442  10.605  1.00  0.00     0.227 C 
HETATM   11  F1  UNL     1       3.210  15.673   7.874  1.00  0.00    -0.230 F 
HETATM   12  C2  UNL     1       3.323  16.762   9.945  1.00  0.00     0.184 C 
HETATM   13  S2  UNL     1       4.466  17.863  10.898  1.00  0.00    -0.144 SA
HETATM   14  C15 UNL     1       5.694  16.726  11.744  1.00  0.00     0.075 C 
HETATM   15  C16 UNL     1       5.126  16.124  13.039  1.00  0.00     0.024 C 
HETATM   16  O1  UNL     1       2.414  14.968  11.503  1.00  0.00    -0.278 OA
ENDBRANCH   1   5
BRANCH   2  17
HETATM   17  C7  UNL     1      10.005  14.521  11.890  1.00  0.00     0.106 A 
HETATM   18  C8  UNL     1      10.274  13.320  12.619  1.00  0.00     0.131 A 
HETATM   19  N3  UNL     1      11.515  13.705  13.109  1.00  0.00    -0.291 N 
HETATM   20  S1  UNL     1      11.432  15.164  12.356  1.00  0.00    -0.001 SA
BRANCH  19  21
HETATM   21  C9  UNL     1      12.492  13.074  13.947  1.00  0.00     0.045 A 
HETATM   22  C10 UNL     1      13.471  12.237  13.388  1.00  0.00     0.030 A 
HETATM   23  C11 UNL     1      14.423  11.622  14.206  1.00  0.00     0.002 A 
HETATM   24  C12 UNL     1      14.405  11.840  15.587  1.00  0.00     0.000 A 
HETATM   25  C13 UNL     1      13.434  12.671  16.150  1.00  0.00     0.002 A 
HETATM   26  C14 UNL     1      12.480  13.288  15.335  1.00  0.00     0.030 A 
ENDBRANCH  19  21
ENDBRANCH   2  17
TORSDOF 3
ENDMDL
MODEL 6
REMARK VINA RESULT:    -7.110      3.542      9.180
REMARK INTER + INTRA:          -8.654
REMARK INTER:                  -8.666
REMARK INTRA:                   0.012
REMARK UNBOUND:                -0.297
REMARK  3 active torsions:
REMARK  status: ('A' for Active; 'I' for Inactive)
REMARK    1  A    between atoms: C5_9  and  N2_10 
REMARK       I    between atoms: N2_10  and  C6_11 
REMARK    2  A    between atoms: C6_11  and  C7_13 
REMARK    3  A    between atoms: N3_15  and  C9_16 
ROOT
HETATM    1  N2  UNL     1      10.299  14.176  14.301  1.00  0.00    -0.343 N 
HETATM    2  C6  UNL     1       9.765  15.119  13.361  1.00  0.00     0.262 C 
HETATM    3  O3  UNL     1      10.440  16.124  13.008  1.00  0.00    -0.267 OA
HETATM    4  H4  UNL     1       9.741  13.316  14.511  1.00  0.00     0.163 HD
ENDROOT
BRANCH   1   5
HETATM    5  C5  UNL     1      11.673  14.265  14.813  1.00  0.00     0.185 C 
HETATM    6  C4  UNL     1      11.829  13.409  16.053  1.00  0.00     0.232 C 
HETATM    7  N1  UNL     1      13.143  13.170  16.518  1.00  0.00    -0.151 NA
HETATM    8  O2  UNL     1      10.837  12.968  16.692  1.00  0.00    -0.277 OA
HETATM    9  C1  UNL     1      14.200  14.154  16.643  1.00  0.00     0.282 C 
HETATM   10  C3  UNL     1      14.148  12.318  15.850  1.00  0.00     0.227 C 
HETATM   11  F1  UNL     1      14.838  14.037  17.870  1.00  0.00    -0.230 F 
HETATM   12  C2  UNL     1      14.942  13.543  15.583  1.00  0.00     0.184 C 
HETATM   13  S2  UNL     1      14.496  14.304  13.955  1.00  0.00    -0.144 SA
HETATM   14  C15 UNL     1      12.686  13.903  13.674  1.00  0.00     0.075 C 
HETATM   15  C16 UNL     1      12.490  12.486  13.113  1.00  0.00     0.024 C 
HETATM   16  O1  UNL     1      14.249  11.096  15.567  1.00  0.00    -0.278 OA
ENDBRANCH   1   5
BRANCH   2  17
HETATM   17  C7  UNL     1       8.428  14.922  12.797  1.00  0.00     0.106 A 
HETATM   18  C8  UNL     1       7.455  15.781  12.196  1.00  0.00     0.131 A 
HETATM   19  N3  UNL     1       6.502  14.801  11.955  1.00  0.00    -0.291 N 
HETATM   20  S1  UNL     1       7.451  13.626  12.607  1.00  0.00    -0.001 SA
BRANCH  19  21
HETATM   21  C9  UNL     1       5.195  14.808  11.367  1.00  0.00     0.045 A 
HETATM   22  C10 UNL     1       4.204  15.676  11.852  1.00  0.00     0.030 A 
HETATM   23  C11 UNL     1       2.930  15.683  11.277  1.00  0.00     0.002 A 
HETATM   24  C12 UNL     1       2.637  14.824  10.214  1.00  0.00     0.000 A 
HETATM   25  C13 UNL     1       3.618  13.958   9.726  1.00  0.00     0.002 A 
HETATM   26  C14 UNL     1       4.894  13.949  10.298  1.00  0.00     0.030 A 
ENDBRANCH  19  21
ENDBRANCH   2  17
TORSDOF 3
ENDMDL
MODEL 7
REMARK VINA RESULT:    -6.999      3.321      9.145
REMARK INTER + INTRA:          -8.524
REMARK INTER:                  -8.220
REMARK INTRA:                  -0.304
REMARK UNBOUND:                -0.297
REMARK  3 active torsions:
REMARK  status: ('A' for Active; 'I' for Inactive)
REMARK    1  A    between atoms: C5_9  and  N2_10 
REMARK       I    between atoms: N2_10  and  C6_11 
REMARK    2  A    between atoms: C6_11  and  C7_13 
REMARK    3  A    between atoms: N3_15  and  C9_16 
ROOT
HETATM    1  N2  UNL     1       9.286  15.338  12.377  1.00  0.00    -0.343 N 
HETATM    2  C6  UNL     1       8.309  15.521  11.342  1.00  0.00     0.262 C 
HETATM    3  O3  UNL     1       8.625  15.379  10.130  1.00  0.00    -0.267 OA
HETATM    4  H4  UNL     1       8.968  15.389  13.372  1.00  0.00     0.163 HD
ENDROOT
BRANCH   1   5
HETATM    5  C5  UNL     1      10.653  14.880  12.097  1.00  0.00     0.185 C 
HETATM    6  C4  UNL     1      11.631  16.028  12.232  1.00  0.00     0.232 C 
HETATM    7  N1  UNL     1      13.009  15.710  12.258  1.00  0.00    -0.151 NA
HETATM    8  O2  UNL     1      11.254  17.230  12.261  1.00  0.00    -0.277 OA
HETATM    9  C1  UNL     1      13.690  14.778  11.381  1.00  0.00     0.282 C 
HETATM   10  C3  UNL     1      13.712  15.032  13.366  1.00  0.00     0.227 C 
HETATM   11  F1  UNL     1      14.869  15.329  10.899  1.00  0.00    -0.230 F 
HETATM   12  C2  UNL     1      13.916  13.870  12.464  1.00  0.00     0.184 C 
HETATM   13  S2  UNL     1      12.526  12.654  12.594  1.00  0.00    -0.144 SA
HETATM   14  C15 UNL     1      10.998  13.657  13.013  1.00  0.00     0.075 C 
HETATM   15  C16 UNL     1      10.913  13.977  14.514  1.00  0.00     0.024 C 
HETATM   16  O1  UNL     1      13.963  15.296  14.570  1.00  0.00    -0.278 OA
ENDBRANCH   1   5
BRANCH   2  17
HETATM   17  C7  UNL     1       6.928  15.872  11.685  1.00  0.00     0.106 A 
HETATM   18  C8  UNL     1       6.269  16.299  12.880  1.00  0.00     0.131 A 
HETATM   19  N3  UNL     1       4.997  16.405  12.332  1.00  0.00    -0.291 N 
HETATM   20  S1  UNL     1       5.526  15.930  10.849  1.00  0.00    -0.001 SA
BRANCH  19  21
HETATM   21  C9  UNL     1       3.718  16.781  12.856  1.00  0.00     0.045 A 
HETATM   22  C10 UNL     1       2.822  15.801  13.312  1.00  0.00     0.030 A 
HETATM   23  C11 UNL     1       1.574  16.169  13.823  1.00  0.00     0.002 A 
HETATM   24  C12 UNL     1       1.212  17.518  13.883  1.00  0.00     0.000 A 
HETATM   25  C13 UNL     1       2.098  18.499  13.432  1.00  0.00     0.002 A 
HETATM   26  C14 UNL     1       3.347  18.134  12.920  1.00  0.00     0.030 A 
ENDBRANCH  19  21
ENDBRANCH   2  17
TORSDOF 3
ENDMDL
MODEL 8
REMARK VINA RESULT:    -6.866      3.657      9.483
REMARK INTER + INTRA:          -8.367
REMARK INTER:                  -8.070
REMARK INTRA:                  -0.297
REMARK UNBOUND:                -0.297
REMARK  3 active torsions:
REMARK  status: ('A' for Active; 'I' for Inactive)
REMARK    1  A    between atoms: C5_9  and  N2_10 
REMARK       I    between atoms: N2_10  and  C6_11 
REMARK    2  A    between atoms: C6_11  and  C7_13 
REMARK    3  A    between atoms: N3_15  and  C9_16 
ROOT
HETATM    1  N2  UNL     1       8.196  15.279  12.509  1.00  0.00    -0.343 N 
HETATM    2  C6  UNL     1       7.143  15.692  13.391  1.00  0.00     0.262 C 
HETATM    3  O3  UNL     1       7.363  15.846  14.623  1.00  0.00    -0.267 OA
HETATM    4  H4  UNL     1       7.994  15.237  11.483  1.00  0.00     0.163 HD
ENDROOT
BRANCH   1   5
HETATM    5  C5  UNL     1       9.585  15.119  12.959  1.00  0.00     0.185 C 
HETATM    6  C4  UNL     1       9.945  13.650  13.042  1.00  0.00     0.232 C 
HETATM    7  N1  UNL     1      11.312  13.323  13.202  1.00  0.00    -0.151 NA
HETATM    8  O2  UNL     1       9.071  12.743  13.032  1.00  0.00    -0.277 OA
HETATM    9  C1  UNL     1      12.245  13.959  14.111  1.00  0.00     0.282 C 
HETATM   10  C3  UNL     1      12.358  13.481  12.171  1.00  0.00     0.227 C 
HETATM   11  F1  UNL     1      12.989  13.009  14.796  1.00  0.00    -0.230 F 
HETATM   12  C2  UNL     1      12.970  14.534  13.020  1.00  0.00     0.184 C 
HETATM   13  S2  UNL     1      12.303  16.213  12.610  1.00  0.00    -0.144 SA
HETATM   14  C15 UNL     1      10.540  15.943  12.031  1.00  0.00     0.075 C 
HETATM   15  C16 UNL     1      10.477  15.512  10.557  1.00  0.00     0.024 C 
HETATM   16  O1  UNL     1      12.587  12.989  11.036  1.00  0.00    -0.278 OA
ENDBRANCH   1   5
BRANCH   2  17
HETATM   17  C7  UNL     1       5.798  15.945  12.868  1.00  0.00     0.106 A 
HETATM   18  C8  UNL     1       4.952  15.290  11.919  1.00  0.00     0.131 A 
HETATM   19  N3  UNL     1       3.885  16.172  12.022  1.00  0.00    -0.291 N 
HETATM   20  S1  UNL     1       4.667  17.091  13.138  1.00  0.00    -0.001 SA
BRANCH  19  21
HETATM   21  C9  UNL     1       2.597  16.252  11.397  1.00  0.00     0.045 A 
HETATM   22  C10 UNL     1       2.438  16.950  10.189  1.00  0.00     0.030 A 
HETATM   23  C11 UNL     1       1.182  17.027   9.580  1.00  0.00     0.002 A 
HETATM   24  C12 UNL     1       0.077  16.407  10.172  1.00  0.00     0.000 A 
HETATM   25  C13 UNL     1       0.228  15.712  11.373  1.00  0.00     0.002 A 
HETATM   26  C14 UNL     1       1.483  15.632  11.985  1.00  0.00     0.030 A 
ENDBRANCH  19  21
ENDBRANCH   2  17
TORSDOF 3
ENDMDL
MODEL 9
REMARK VINA RESULT:    -6.751      5.955      8.660
REMARK INTER + INTRA:          -8.232
REMARK INTER:                  -7.988
REMARK INTRA:                  -0.244
REMARK UNBOUND:                -0.297
REMARK  3 active torsions:
REMARK  status: ('A' for Active; 'I' for Inactive)
REMARK    1  A    between atoms: C5_9  and  N2_10 
REMARK       I    between atoms: N2_10  and  C6_11 
REMARK    2  A    between atoms: C6_11  and  C7_13 
REMARK    3  A    between atoms: N3_15  and  C9_16 
ROOT
HETATM    1  N2  UNL     1      13.815  16.166  13.053  1.00  0.00    -0.343 N 
HETATM    2  C6  UNL     1      13.038  16.942  12.130  1.00  0.00     0.262 C 
HETATM    3  O3  UNL     1      11.812  17.147  12.338  1.00  0.00    -0.267 OA
HETATM    4  H4  UNL     1      14.845  16.083  12.886  1.00  0.00     0.163 HD
ENDROOT
BRANCH   1   5
HETATM    5  C5  UNL     1      13.266  15.666  14.320  1.00  0.00     0.185 C 
HETATM    6  C4  UNL     1      12.841  14.219  14.175  1.00  0.00     0.232 C 
HETATM    7  N1  UNL     1      12.538  13.507  15.359  1.00  0.00    -0.151 NA
HETATM    8  O2  UNL     1      12.698  13.672  13.049  1.00  0.00    -0.277 OA
HETATM    9  C1  UNL     1      11.743  13.990  16.470  1.00  0.00     0.282 C 
HETATM   10  C3  UNL     1      13.520  13.076  16.375  1.00  0.00     0.227 C 
HETATM   11  F1  UNL     1      10.825  13.030  16.872  1.00  0.00    -0.230 F 
HETATM   12  C2  UNL     1      12.893  14.034  17.320  1.00  0.00     0.184 C 
HETATM   13  S2  UNL     1      13.699  15.699  17.239  1.00  0.00    -0.144 SA
HETATM   14  C15 UNL     1      14.299  15.899  15.473  1.00  0.00     0.075 C 
HETATM   15  C16 UNL     1      15.643  15.191  15.238  1.00  0.00     0.024 C 
HETATM   16  O1  UNL     1      14.505  12.293  16.402  1.00  0.00    -0.278 OA
ENDBRANCH   1   5
BRANCH   2  17
HETATM   17  C7  UNL     1      13.665  17.511  10.934  1.00  0.00     0.106 A 
HETATM   18  C8  UNL     1      13.900  17.041   9.605  1.00  0.00     0.131 A 
HETATM   19  N3  UNL     1      14.533  18.186   9.139  1.00  0.00    -0.291 N 
HETATM   20  S1  UNL     1      14.377  18.941  10.592  1.00  0.00    -0.001 SA
BRANCH  19  21
HETATM   21  C9  UNL     1      15.101  18.565   7.879  1.00  0.00     0.045 A 
HETATM   22  C10 UNL     1      16.494  18.564   7.702  1.00  0.00     0.030 A 
HETATM   23  C11 UNL     1      17.048  18.934   6.472  1.00  0.00     0.002 A 
HETATM   24  C12 UNL     1      16.216  19.307   5.413  1.00  0.00     0.000 A 
HETATM   25  C13 UNL     1      14.830  19.310   5.582  1.00  0.00     0.002 A 
HETATM   26  C14 UNL     1      14.272  18.941   6.811  1.00  0.00     0.030 A 
ENDBRANCH  19  21
ENDBRANCH   2  17
TORSDOF 3
ENDMDL
