MODEL 1
REMARK VINA RESULT:    -7.076      0.000      0.000
REMARK INTER + INTRA:         -11.121
REMARK INTER:                 -10.213
REMARK INTRA:                  -0.908
REMARK UNBOUND:                -0.942
REMARK  8 active torsions:
REMARK  status: ('A' for Active; 'I' for Inactive)
REMARK    1  A    between atoms: C5_9  and  N2_10 
REMARK       I    between atoms: N2_10  and  C6_11 
REMARK    2  A    between atoms: C6_11  and  C7_13 
REMARK    3  A    between atoms: N3_15  and  C9_16 
REMARK    4  A    between atoms: C15_23  and  C16_24 
REMARK    5  A    between atoms: C16_24  and  O4_25 
REMARK    6  A    between atoms: O4_25  and  O5_26 
REMARK    7  A    between atoms: O5_26  and  N4_27 
REMARK    8  A    between atoms: N4_27  and  N5_28 
ROOT
HETATM    1  C1  UNL     1      14.177  15.669  16.085  1.00  0.00     0.109 C 
HETATM    2  S1  UNL     1      15.089  14.124  15.576  1.00  0.00    -0.151 SA
HETATM    3  C2  UNL     1      13.812  12.785  15.408  1.00  0.00     0.155 C 
HETATM    4  C3  UNL     1      12.931  13.191  14.281  1.00  0.00     0.222 C 
HETATM    5  O1  UNL     1      12.990  13.137  13.024  1.00  0.00    -0.278 OA
HETATM    6  N1  UNL     1      12.011  13.786  15.275  1.00  0.00    -0.178 NA
HETATM    7  C4  UNL     1      11.762  15.177  15.408  1.00  0.00     0.230 C 
HETATM    8  O2  UNL     1      10.595  15.598  15.620  1.00  0.00    -0.277 OA
HETATM    9  C5  UNL     1      12.928  16.129  15.274  1.00  0.00     0.181 C 
HETATM   10  C15 UNL     1      12.612  12.857  16.220  1.00  0.00     0.123 C 
ENDROOT
BRANCH   9  11
HETATM   11  N2  UNL     1      13.265  16.341  13.863  1.00  0.00    -0.343 N 
HETATM   12  C6  UNL     1      13.569  17.638  13.331  1.00  0.00     0.262 C 
HETATM   13  O3  UNL     1      13.454  18.668  14.047  1.00  0.00    -0.267 OA
HETATM   14  H5  UNL     1      13.227  15.538  13.196  1.00  0.00     0.163 HD
BRANCH  12  15
HETATM   15  C7  UNL     1      14.010  17.778  11.941  1.00  0.00     0.106 A 
HETATM   16  C8  UNL     1      13.911  18.808  10.955  1.00  0.00     0.131 A 
HETATM   17  N3  UNL     1      14.573  18.127   9.943  1.00  0.00    -0.291 N 
HETATM   18  S2  UNL     1      14.813  16.810  10.899  1.00  0.00    -0.001 SA
BRANCH  17  19
HETATM   19  C9  UNL     1      14.918  18.444   8.589  1.00  0.00     0.045 A 
HETATM   20  C10 UNL     1      16.221  18.857   8.266  1.00  0.00     0.030 A 
HETATM   21  C11 UNL     1      16.555  19.163   6.943  1.00  0.00     0.002 A 
HETATM   22  C12 UNL     1      15.593  19.060   5.936  1.00  0.00     0.000 A 
HETATM   23  C13 UNL     1      14.295  18.650   6.249  1.00  0.00     0.002 A 
HETATM   24  C14 UNL     1      13.956  18.344   7.571  1.00  0.00     0.030 A 
ENDBRANCH  17  19
ENDBRANCH  12  15
ENDBRANCH   9  11
BRANCH  10  25
HETATM   25  C16 UNL     1      12.667  13.316  17.696  1.00  0.00     0.234 C 
BRANCH  25  26
HETATM   26  O4  UNL     1      11.503  12.929  18.385  1.00  0.00    -0.220 OA
BRANCH  26  27
HETATM   27  O5  UNL     1      10.856  14.046  18.665  1.00  0.00    -0.127 OA
BRANCH  27  28
HETATM   28  N4  UNL     1       9.654  13.912  18.051  1.00  0.00    -0.105 NA
HETATM   29  H15 UNL     1       9.487  12.884  17.959  1.00  0.00     0.177 HD
BRANCH  28  30
HETATM   30  N5  UNL     1       8.687  14.413  18.934  1.00  0.00    -0.245 NA
HETATM   31  H16 UNL     1       9.121  14.449  19.885  1.00  0.00     0.139 HD
HETATM   32  H17 UNL     1       7.926  13.699  18.993  1.00  0.00     0.139 HD
ENDBRANCH  28  30
ENDBRANCH  27  28
ENDBRANCH  26  27
ENDBRANCH  25  26
ENDBRANCH  10  25
TORSDOF 8
ENDMDL
MODEL 2
REMARK VINA RESULT:    -7.074      5.972      8.472
REMARK INTER + INTRA:         -11.117
REMARK INTER:                 -10.551
REMARK INTRA:                  -0.566
REMARK UNBOUND:                -0.942
REMARK  8 active torsions:
REMARK  status: ('A' for Active; 'I' for Inactive)
REMARK    1  A    between atoms: C5_9  and  N2_10 
REMARK       I    between atoms: N2_10  and  C6_11 
REMARK    2  A    between atoms: C6_11  and  C7_13 
REMARK    3  A    between atoms: N3_15  and  C9_16 
REMARK    4  A    between atoms: C15_23  and  C16_24 
REMARK    5  A    between atoms: C16_24  and  O4_25 
REMARK    6  A    between atoms: O4_25  and  O5_26 
REMARK    7  A    between atoms: O5_26  and  N4_27 
REMARK    8  A    between atoms: N4_27  and  N5_28 
ROOT
HETATM    1  C1  UNL     1      10.736  13.778  14.883  1.00  0.00     0.109 C 
HETATM    2  S1  UNL     1      11.389  15.496  15.202  1.00  0.00    -0.151 SA
HETATM    3  C2  UNL     1      12.489  15.920  13.766  1.00  0.00     0.155 C 
HETATM    4  C3  UNL     1      11.608  15.978  12.570  1.00  0.00     0.222 C 
HETATM    5  O1  UNL     1      10.819  16.823  12.071  1.00  0.00    -0.278 OA
HETATM    6  N1  UNL     1      11.973  14.573  12.289  1.00  0.00    -0.178 NA
HETATM    7  C4  UNL     1      11.075  13.477  12.368  1.00  0.00     0.230 C 
HETATM    8  O2  UNL     1      11.103  12.566  11.500  1.00  0.00    -0.277 OA
HETATM    9  C5  UNL     1      10.083  13.445  13.508  1.00  0.00     0.181 C 
HETATM   10  C15 UNL     1      13.172  14.847  13.067  1.00  0.00     0.123 C 
ENDROOT
BRANCH   9  11
HETATM   11  N2  UNL     1       8.949  14.333  13.235  1.00  0.00    -0.343 N 
HETATM   12  C6  UNL     1       7.682  13.845  12.772  1.00  0.00     0.262 C 
HETATM   13  O3  UNL     1       7.532  12.628  12.482  1.00  0.00    -0.267 OA
HETATM   14  H5  UNL     1       9.071  15.368  13.316  1.00  0.00     0.163 HD
BRANCH  12  15
HETATM   15  C7  UNL     1       6.550  14.762  12.624  1.00  0.00     0.106 A 
HETATM   16  C8  UNL     1       5.972  15.782  13.441  1.00  0.00     0.131 A 
HETATM   17  N3  UNL     1       4.956  16.135  12.563  1.00  0.00    -0.291 N 
HETATM   18  S2  UNL     1       5.441  15.021  11.454  1.00  0.00    -0.001 SA
BRANCH  17  19
HETATM   19  C9  UNL     1       3.895  17.099  12.602  1.00  0.00     0.045 A 
HETATM   20  C10 UNL     1       2.800  16.913  13.461  1.00  0.00     0.030 A 
HETATM   21  C11 UNL     1       1.768  17.857  13.500  1.00  0.00     0.002 A 
HETATM   22  C12 UNL     1       1.823  18.988  12.682  1.00  0.00     0.000 A 
HETATM   23  C13 UNL     1       2.909  19.179  11.826  1.00  0.00     0.002 A 
HETATM   24  C14 UNL     1       3.942  18.238  11.783  1.00  0.00     0.030 A 
ENDBRANCH  17  19
ENDBRANCH  12  15
ENDBRANCH   9  11
BRANCH  10  25
HETATM   25  C16 UNL     1      13.784  13.651  13.832  1.00  0.00     0.234 C 
BRANCH  25  26
HETATM   26  O4  UNL     1      14.454  12.781  12.952  1.00  0.00    -0.220 OA
BRANCH  26  27
HETATM   27  O5  UNL     1      13.954  11.579  13.175  1.00  0.00    -0.127 OA
BRANCH  27  28
HETATM   28  N4  UNL     1      15.037  10.773  13.303  1.00  0.00    -0.105 NA
HETATM   29  H15 UNL     1      15.873  11.379  13.141  1.00  0.00     0.177 HD
BRANCH  28  30
HETATM   30  N5  UNL     1      15.080  10.356  14.642  1.00  0.00    -0.245 NA
HETATM   31  H16 UNL     1      14.489  11.019  15.194  1.00  0.00     0.139 HD
HETATM   32  H17 UNL     1      16.060  10.497  14.976  1.00  0.00     0.139 HD
ENDBRANCH  28  30
ENDBRANCH  27  28
ENDBRANCH  26  27
ENDBRANCH  25  26
ENDBRANCH  10  25
TORSDOF 8
ENDMDL
MODEL 3
REMARK VINA RESULT:    -7.072      5.144      6.426
REMARK INTER + INTRA:         -11.116
REMARK INTER:                 -10.586
REMARK INTRA:                  -0.530
REMARK UNBOUND:                -0.942
REMARK  8 active torsions:
REMARK  status: ('A' for Active; 'I' for Inactive)
REMARK    1  A    between atoms: C5_9  and  N2_10 
REMARK       I    between atoms: N2_10  and  C6_11 
REMARK    2  A    between atoms: C6_11  and  C7_13 
REMARK    3  A    between atoms: N3_15  and  C9_16 
REMARK    4  A    between atoms: C15_23  and  C16_24 
REMARK    5  A    between atoms: C16_24  and  O4_25 
REMARK    6  A    between atoms: O4_25  and  O5_26 
REMARK    7  A    between atoms: O5_26  and  N4_27 
REMARK    8  A    between atoms: N4_27  and  N5_28 
ROOT
HETATM    1  C1  UNL     1      11.190  13.800  14.148  1.00  0.00     0.109 C 
HETATM    2  S1  UNL     1      12.237  15.343  14.126  1.00  0.00    -0.151 SA
HETATM    3  C2  UNL     1      13.834  14.888  13.293  1.00  0.00     0.155 C 
HETATM    4  C3  UNL     1      13.487  14.548  11.888  1.00  0.00     0.222 C 
HETATM    5  O1  UNL     1      13.252  15.197  10.834  1.00  0.00    -0.278 OA
HETATM    6  N1  UNL     1      13.427  13.127  12.294  1.00  0.00    -0.178 NA
HETATM    7  C4  UNL     1      12.239  12.350  12.325  1.00  0.00     0.230 C 
HETATM    8  O2  UNL     1      12.250  11.155  11.927  1.00  0.00    -0.277 OA
HETATM    9  C5  UNL     1      10.972  12.999  12.831  1.00  0.00     0.181 C 
HETATM   10  C15 UNL     1      14.306  13.519  13.385  1.00  0.00     0.123 C 
ENDROOT
BRANCH   9  11
HETATM   11  N2  UNL     1      10.371  13.843  11.793  1.00  0.00    -0.343 N 
HETATM   12  C6  UNL     1       8.956  13.897  11.567  1.00  0.00     0.262 C 
HETATM   13  O3  UNL     1       8.177  13.130  12.194  1.00  0.00    -0.267 OA
HETATM   14  H5  UNL     1      10.988  14.385  11.147  1.00  0.00     0.163 HD
BRANCH  12  15
HETATM   15  C7  UNL     1       8.401  14.843  10.596  1.00  0.00     0.106 A 
HETATM   16  C8  UNL     1       8.275  14.861   9.172  1.00  0.00     0.131 A 
HETATM   17  N3  UNL     1       7.653  16.099   9.082  1.00  0.00    -0.291 N 
HETATM   18  S2  UNL     1       7.682  16.304  10.713  1.00  0.00    -0.001 SA
BRANCH  17  19
HETATM   19  C9  UNL     1       7.170  16.893   7.991  1.00  0.00     0.045 A 
HETATM   20  C10 UNL     1       5.911  16.631   7.425  1.00  0.00     0.030 A 
HETATM   21  C11 UNL     1       5.441  17.411   6.363  1.00  0.00     0.002 A 
HETATM   22  C12 UNL     1       6.222  18.453   5.860  1.00  0.00     0.000 A 
HETATM   23  C13 UNL     1       7.475  18.718   6.417  1.00  0.00     0.002 A 
HETATM   24  C14 UNL     1       7.950  17.941   7.478  1.00  0.00     0.030 A 
ENDBRANCH  17  19
ENDBRANCH  12  15
ENDBRANCH   9  11
BRANCH  10  25
HETATM   25  C16 UNL     1      14.178  12.711  14.697  1.00  0.00     0.234 C 
BRANCH  25  26
HETATM   26  O4  UNL     1      15.160  11.706  14.767  1.00  0.00    -0.220 OA
BRANCH  26  27
HETATM   27  O5  UNL     1      14.753  10.861  15.697  1.00  0.00    -0.127 OA
BRANCH  27  28
HETATM   28  N4  UNL     1      15.406   9.705  15.424  1.00  0.00    -0.105 NA
HETATM   29  H15 UNL     1      16.091   9.929  14.666  1.00  0.00     0.177 HD
BRANCH  28  30
HETATM   30  N5  UNL     1      16.147   9.375  16.568  1.00  0.00    -0.245 NA
HETATM   31  H16 UNL     1      17.159   9.475  16.324  1.00  0.00     0.139 HD
HETATM   32  H17 UNL     1      15.995   8.357  16.750  1.00  0.00     0.139 HD
ENDBRANCH  28  30
ENDBRANCH  27  28
ENDBRANCH  26  27
ENDBRANCH  25  26
ENDBRANCH  10  25
TORSDOF 8
ENDMDL
MODEL 4
REMARK VINA RESULT:    -6.924      5.706      7.347
REMARK INTER + INTRA:         -10.903
REMARK INTER:                 -10.359
REMARK INTRA:                  -0.544
REMARK UNBOUND:                -0.942
REMARK  8 active torsions:
REMARK  status: ('A' for Active; 'I' for Inactive)
REMARK    1  A    between atoms: C5_9  and  N2_10 
REMARK       I    between atoms: N2_10  and  C6_11 
REMARK    2  A    between atoms: C6_11  and  C7_13 
REMARK    3  A    between atoms: N3_15  and  C9_16 
REMARK    4  A    between atoms: C15_23  and  C16_24 
REMARK    5  A    between atoms: C16_24  and  O4_25 
REMARK    6  A    between atoms: O4_25  and  O5_26 
REMARK    7  A    between atoms: O5_26  and  N4_27 
REMARK    8  A    between atoms: N4_27  and  N5_28 
ROOT
HETATM    1  C1  UNL     1      12.047  16.103  13.859  1.00  0.00     0.109 C 
HETATM    2  S1  UNL     1      12.806  15.613  12.228  1.00  0.00    -0.151 SA
HETATM    3  C2  UNL     1      13.298  13.828  12.386  1.00  0.00     0.155 C 
HETATM    4  C3  UNL     1      12.034  13.063  12.553  1.00  0.00     0.222 C 
HETATM    5  O1  UNL     1      11.133  12.630  11.786  1.00  0.00    -0.278 OA
HETATM    6  N1  UNL     1      12.239  13.131  14.016  1.00  0.00    -0.178 NA
HETATM    7  C4  UNL     1      11.413  13.861  14.910  1.00  0.00     0.230 C 
HETATM    8  O2  UNL     1      11.096  13.374  16.027  1.00  0.00    -0.277 OA
HETATM    9  C5  UNL     1      10.921  15.223  14.479  1.00  0.00     0.181 C 
HETATM   10  C15 UNL     1      13.647  13.312  13.696  1.00  0.00     0.123 C 
ENDROOT
BRANCH   9  11
HETATM   11  N2  UNL     1       9.785  15.097  13.560  1.00  0.00    -0.343 N 
HETATM   12  C6  UNL     1       8.436  15.379  13.960  1.00  0.00     0.262 C 
HETATM   13  O3  UNL     1       8.167  15.649  15.160  1.00  0.00    -0.267 OA
HETATM   14  H5  UNL     1       9.939  14.731  12.594  1.00  0.00     0.163 HD
BRANCH  12  15
HETATM   15  C7  UNL     1       7.354  15.347  12.972  1.00  0.00     0.106 A 
HETATM   16  C8  UNL     1       7.121  14.621  11.763  1.00  0.00     0.131 A 
HETATM   17  N3  UNL     1       5.890  15.192  11.469  1.00  0.00    -0.291 N 
HETATM   18  S2  UNL     1       5.932  16.135  12.816  1.00  0.00    -0.001 SA
BRANCH  17  19
HETATM   19  C9  UNL     1       4.944  15.025  10.405  1.00  0.00     0.045 A 
HETATM   20  C10 UNL     1       5.018  15.832   9.256  1.00  0.00     0.030 A 
HETATM   21  C11 UNL     1       4.095  15.664   8.219  1.00  0.00     0.002 A 
HETATM   22  C12 UNL     1       3.095  14.694   8.320  1.00  0.00     0.000 A 
HETATM   23  C13 UNL     1       3.016  13.890   9.459  1.00  0.00     0.002 A 
HETATM   24  C14 UNL     1       3.935  14.054  10.499  1.00  0.00     0.030 A 
ENDBRANCH  17  19
ENDBRANCH  12  15
ENDBRANCH   9  11
BRANCH  10  25
HETATM   25  C16 UNL     1      14.477  14.152  14.695  1.00  0.00     0.234 C 
BRANCH  25  26
HETATM   26  O4  UNL     1      15.247  13.322  15.530  1.00  0.00    -0.220 OA
BRANCH  26  27
HETATM   27  O5  UNL     1      15.226  12.123  14.974  1.00  0.00    -0.127 OA
BRANCH  27  28
HETATM   28  N4  UNL     1      14.884  11.282  15.980  1.00  0.00    -0.105 NA
HETATM   29  H15 UNL     1      13.839  11.292  16.027  1.00  0.00     0.177 HD
BRANCH  28  30
HETATM   30  N5  UNL     1      15.269   9.993  15.584  1.00  0.00    -0.245 NA
HETATM   31  H16 UNL     1      15.637  10.064  14.608  1.00  0.00     0.139 HD
HETATM   32  H17 UNL     1      14.399   9.417  15.521  1.00  0.00     0.139 HD
ENDBRANCH  28  30
ENDBRANCH  27  28
ENDBRANCH  26  27
ENDBRANCH  25  26
ENDBRANCH  10  25
TORSDOF 8
ENDMDL
MODEL 5
REMARK VINA RESULT:    -6.825      5.684      7.087
REMARK INTER + INTRA:         -10.760
REMARK INTER:                 -10.074
REMARK INTRA:                  -0.686
REMARK UNBOUND:                -0.942
REMARK  8 active torsions:
REMARK  status: ('A' for Active; 'I' for Inactive)
REMARK    1  A    between atoms: C5_9  and  N2_10 
REMARK       I    between atoms: N2_10  and  C6_11 
REMARK    2  A    between atoms: C6_11  and  C7_13 
REMARK    3  A    between atoms: N3_15  and  C9_16 
REMARK    4  A    between atoms: C15_23  and  C16_24 
REMARK    5  A    between atoms: C16_24  and  O4_25 
REMARK    6  A    between atoms: O4_25  and  O5_26 
REMARK    7  A    between atoms: O5_26  and  N4_27 
REMARK    8  A    between atoms: N4_27  and  N5_28 
ROOT
HETATM    1  C1  UNL     1      10.995  13.779  14.093  1.00  0.00     0.109 C 
HETATM    2  S1  UNL     1      11.853  15.429  13.949  1.00  0.00    -0.151 SA
HETATM    3  C2  UNL     1      13.435  15.126  13.026  1.00  0.00     0.155 C 
HETATM    4  C3  UNL     1      13.042  14.692  11.659  1.00  0.00     0.222 C 
HETATM    5  O1  UNL     1      12.667  15.267  10.603  1.00  0.00    -0.278 OA
HETATM    6  N1  UNL     1      13.173  13.291  12.115  1.00  0.00    -0.178 NA
HETATM    7  C4  UNL     1      12.088  12.385  12.251  1.00  0.00     0.230 C 
HETATM    8  O2  UNL     1      12.213  11.185  11.893  1.00  0.00    -0.277 OA
HETATM    9  C5  UNL     1      10.788  12.906  12.820  1.00  0.00     0.181 C 
HETATM   10  C15 UNL     1      14.069  13.824  13.130  1.00  0.00     0.123 C 
ENDROOT
BRANCH   9  11
HETATM   11  N2  UNL     1      10.030  13.634  11.798  1.00  0.00    -0.343 N 
HETATM   12  C6  UNL     1       8.595  13.640  11.762  1.00  0.00     0.262 C 
HETATM   13  O3  UNL     1       7.932  12.925  12.558  1.00  0.00    -0.267 OA
HETATM   14  H5  UNL     1      10.538  14.120  11.026  1.00  0.00     0.163 HD
BRANCH  12  15
HETATM   15  C7  UNL     1       7.888  14.477  10.790  1.00  0.00     0.106 A 
HETATM   16  C8  UNL     1       6.512  14.735  10.502  1.00  0.00     0.131 A 
HETATM   17  N3  UNL     1       6.731  15.620   9.455  1.00  0.00    -0.291 N 
HETATM   18  S2  UNL     1       8.364  15.486   9.597  1.00  0.00    -0.001 SA
BRANCH  17  19
HETATM   19  C9  UNL     1       5.869  16.365   8.584  1.00  0.00     0.045 A 
HETATM   20  C10 UNL     1       5.534  15.862   7.316  1.00  0.00     0.030 A 
HETATM   21  C11 UNL     1       4.691  16.591   6.470  1.00  0.00     0.002 A 
HETATM   22  C12 UNL     1       4.179  17.822   6.884  1.00  0.00     0.000 A 
HETATM   23  C13 UNL     1       4.508  18.328   8.143  1.00  0.00     0.002 A 
HETATM   24  C14 UNL     1       5.351  17.604   8.991  1.00  0.00     0.030 A 
ENDBRANCH  17  19
ENDBRANCH  12  15
ENDBRANCH   9  11
BRANCH  10  25
HETATM   25  C16 UNL     1      14.118  13.060  14.474  1.00  0.00     0.234 C 
BRANCH  25  26
HETATM   26  O4  UNL     1      15.344  12.387  14.625  1.00  0.00    -0.220 OA
BRANCH  26  27
HETATM   27  O5  UNL     1      15.150  11.166  14.158  1.00  0.00    -0.127 OA
BRANCH  27  28
HETATM   28  N4  UNL     1      14.558  10.497  15.178  1.00  0.00    -0.105 NA
HETATM   29  H15 UNL     1      13.854   9.860  14.740  1.00  0.00     0.177 HD
BRANCH  28  30
HETATM   30  N5  UNL     1      15.543   9.687  15.761  1.00  0.00    -0.245 NA
HETATM   31  H16 UNL     1      16.411  10.264  15.848  1.00  0.00     0.139 HD
HETATM   32  H17 UNL     1      15.768   8.933  15.074  1.00  0.00     0.139 HD
ENDBRANCH  28  30
ENDBRANCH  27  28
ENDBRANCH  26  27
ENDBRANCH  25  26
ENDBRANCH  10  25
TORSDOF 8
ENDMDL
MODEL 6
REMARK VINA RESULT:    -6.812      5.489      8.574
REMARK INTER + INTRA:         -10.741
REMARK INTER:                 -10.267
REMARK INTRA:                  -0.473
REMARK UNBOUND:                -0.942
REMARK  8 active torsions:
REMARK  status: ('A' for Active; 'I' for Inactive)
REMARK    1  A    between atoms: C5_9  and  N2_10 
REMARK       I    between atoms: N2_10  and  C6_11 
REMARK    2  A    between atoms: C6_11  and  C7_13 
REMARK    3  A    between atoms: N3_15  and  C9_16 
REMARK    4  A    between atoms: C15_23  and  C16_24 
REMARK    5  A    between atoms: C16_24  and  O4_25 
REMARK    6  A    between atoms: O4_25  and  O5_26 
REMARK    7  A    between atoms: O5_26  and  N4_27 
REMARK    8  A    between atoms: N4_27  and  N5_28 
ROOT
HETATM    1  C1  UNL     1       8.886  14.943  10.537  1.00  0.00     0.109 C 
HETATM    2  S1  UNL     1       8.226  16.632  10.974  1.00  0.00    -0.151 SA
HETATM    3  C2  UNL     1       6.623  16.359  11.871  1.00  0.00     0.155 C 
HETATM    4  C3  UNL     1       6.969  15.659  13.136  1.00  0.00     0.222 C 
HETATM    5  O1  UNL     1       7.412  16.001  14.264  1.00  0.00    -0.278 OA
HETATM    6  N1  UNL     1       6.674  14.379  12.456  1.00  0.00    -0.178 NA
HETATM    7  C4  UNL     1       7.646  13.392  12.145  1.00  0.00     0.230 C 
HETATM    8  O2  UNL     1       7.384  12.170  12.299  1.00  0.00    -0.277 OA
HETATM    9  C5  UNL     1       8.995  13.850  11.640  1.00  0.00     0.181 C 
HETATM   10  C15 UNL     1       5.842  15.174  11.565  1.00  0.00     0.123 C 
ENDROOT
BRANCH   9  11
HETATM   11  N2  UNL     1       9.837  14.304  12.751  1.00  0.00    -0.343 N 
HETATM   12  C6  UNL     1      11.089  13.682  13.074  1.00  0.00     0.262 C 
HETATM   13  O3  UNL     1      11.463  12.643  12.467  1.00  0.00    -0.267 OA
HETATM   14  H5  UNL     1       9.498  15.068  13.378  1.00  0.00     0.163 HD
BRANCH  12  15
HETATM   15  C7  UNL     1      11.944  14.248  14.120  1.00  0.00     0.106 A 
HETATM   16  C8  UNL     1      11.715  14.759  15.435  1.00  0.00     0.131 A 
HETATM   17  N3  UNL     1      13.035  15.083  15.713  1.00  0.00    -0.291 N 
HETATM   18  S2  UNL     1      13.544  14.548  14.244  1.00  0.00    -0.001 SA
BRANCH  17  19
HETATM   19  C9  UNL     1      13.702  15.660  16.844  1.00  0.00     0.045 A 
HETATM   20  C10 UNL     1      13.818  14.938  18.044  1.00  0.00     0.030 A 
HETATM   21  C11 UNL     1      14.472  15.503  19.143  1.00  0.00     0.002 A 
HETATM   22  C12 UNL     1      15.014  16.787  19.053  1.00  0.00     0.000 A 
HETATM   23  C13 UNL     1      14.903  17.509  17.863  1.00  0.00     0.002 A 
HETATM   24  C14 UNL     1      14.249  16.950  16.762  1.00  0.00     0.030 A 
ENDBRANCH  17  19
ENDBRANCH  12  15
ENDBRANCH   9  11
BRANCH  10  25
HETATM   25  C16 UNL     1       5.700  14.659  10.114  1.00  0.00     0.234 C 
BRANCH  25  26
HETATM   26  O4  UNL     1       4.744  13.629  10.038  1.00  0.00    -0.220 OA
BRANCH  26  27
HETATM   27  O5  UNL     1       3.574  14.227   9.897  1.00  0.00    -0.127 OA
BRANCH  27  28
HETATM   28  N4  UNL     1       2.735  13.540  10.712  1.00  0.00    -0.105 NA
HETATM   29  H15 UNL     1       2.432  14.212  11.453  1.00  0.00     0.177 HD
BRANCH  28  30
HETATM   30  N5  UNL     1       1.600  13.219   9.952  1.00  0.00    -0.245 NA
HETATM   31  H16 UNL     1       1.268  14.101   9.500  1.00  0.00     0.139 HD
HETATM   32  H17 UNL     1       0.850  12.940  10.624  1.00  0.00     0.139 HD
ENDBRANCH  28  30
ENDBRANCH  27  28
ENDBRANCH  26  27
ENDBRANCH  25  26
ENDBRANCH  10  25
TORSDOF 8
ENDMDL
MODEL 7
REMARK VINA RESULT:    -6.771      1.778      2.253
REMARK INTER + INTRA:         -10.683
REMARK INTER:                 -10.077
REMARK INTRA:                  -0.606
REMARK UNBOUND:                -0.942
REMARK  8 active torsions:
REMARK  status: ('A' for Active; 'I' for Inactive)
REMARK    1  A    between atoms: C5_9  and  N2_10 
REMARK       I    between atoms: N2_10  and  C6_11 
REMARK    2  A    between atoms: C6_11  and  C7_13 
REMARK    3  A    between atoms: N3_15  and  C9_16 
REMARK    4  A    between atoms: C15_23  and  C16_24 
REMARK    5  A    between atoms: C16_24  and  O4_25 
REMARK    6  A    between atoms: O4_25  and  O5_26 
REMARK    7  A    between atoms: O5_26  and  N4_27 
REMARK    8  A    between atoms: N4_27  and  N5_28 
ROOT
HETATM    1  C1  UNL     1      13.225  14.233  14.396  1.00  0.00     0.109 C 
HETATM    2  S1  UNL     1      12.173  13.134  13.318  1.00  0.00    -0.151 SA
HETATM    3  C2  UNL     1      10.410  13.653  13.591  1.00  0.00     0.155 C 
HETATM    4  C3  UNL     1      10.302  15.043  13.075  1.00  0.00     0.222 C 
HETATM    5  O1  UNL     1      10.165  15.577  11.943  1.00  0.00    -0.278 OA
HETATM    6  N1  UNL     1      10.538  15.525  14.454  1.00  0.00    -0.178 NA
HETATM    7  C4  UNL     1      11.699  16.227  14.872  1.00  0.00     0.230 C 
HETATM    8  O2  UNL     1      11.604  17.203  15.661  1.00  0.00    -0.277 OA
HETATM    9  C5  UNL     1      13.039  15.778  14.335  1.00  0.00     0.181 C 
HETATM   10  C15 UNL     1      10.040  14.224  14.873  1.00  0.00     0.123 C 
ENDROOT
BRANCH   9  11
HETATM   11  N2  UNL     1      13.246  16.281  12.974  1.00  0.00    -0.343 N 
HETATM   12  C6  UNL     1      13.732  17.604  12.706  1.00  0.00     0.262 C 
HETATM   13  O3  UNL     1      13.901  18.426  13.646  1.00  0.00    -0.267 OA
HETATM   14  H5  UNL     1      12.978  15.687  12.157  1.00  0.00     0.163 HD
BRANCH  12  15
HETATM   15  C7  UNL     1      14.030  18.015  11.332  1.00  0.00     0.106 A 
HETATM   16  C8  UNL     1      14.629  17.378  10.202  1.00  0.00     0.131 A 
HETATM   17  N3  UNL     1      14.525  18.457   9.335  1.00  0.00    -0.291 N 
HETATM   18  S2  UNL     1      13.809  19.392  10.483  1.00  0.00    -0.001 SA
BRANCH  17  19
HETATM   19  C9  UNL     1      14.895  18.675   7.968  1.00  0.00     0.045 A 
HETATM   20  C10 UNL     1      13.950  18.511   6.941  1.00  0.00     0.030 A 
HETATM   21  C11 UNL     1      14.314  18.728   5.609  1.00  0.00     0.002 A 
HETATM   22  C12 UNL     1      15.620  19.109   5.292  1.00  0.00     0.000 A 
HETATM   23  C13 UNL     1      16.565  19.274   6.307  1.00  0.00     0.002 A 
HETATM   24  C14 UNL     1      16.206  19.057   7.641  1.00  0.00     0.030 A 
ENDBRANCH  17  19
ENDBRANCH  12  15
ENDBRANCH   9  11
BRANCH  10  25
HETATM   25  C16 UNL     1      10.609  13.663  16.197  1.00  0.00     0.234 C 
BRANCH  25  26
HETATM   26  O4  UNL     1       9.577  13.403  17.117  1.00  0.00    -0.220 OA
BRANCH  26  27
HETATM   27  O5  UNL     1       9.844  14.139  18.182  1.00  0.00    -0.127 OA
BRANCH  27  28
HETATM   28  N4  UNL     1       8.635  14.373  18.751  1.00  0.00    -0.105 NA
HETATM   29  H15 UNL     1       8.826  14.884  19.643  1.00  0.00     0.177 HD
BRANCH  28  30
HETATM   30  N5  UNL     1       7.949  15.256  17.905  1.00  0.00    -0.245 NA
HETATM   31  H16 UNL     1       7.564  14.694  17.112  1.00  0.00     0.139 HD
HETATM   32  H17 UNL     1       8.662  15.895  17.484  1.00  0.00     0.139 HD
ENDBRANCH  28  30
ENDBRANCH  27  28
ENDBRANCH  26  27
ENDBRANCH  25  26
ENDBRANCH  10  25
TORSDOF 8
ENDMDL
MODEL 8
REMARK VINA RESULT:    -6.689      6.548      9.129
REMARK INTER + INTRA:         -10.564
REMARK INTER:                  -9.365
REMARK INTRA:                  -1.199
REMARK UNBOUND:                -0.942
REMARK  8 active torsions:
REMARK  status: ('A' for Active; 'I' for Inactive)
REMARK    1  A    between atoms: C5_9  and  N2_10 
REMARK       I    between atoms: N2_10  and  C6_11 
REMARK    2  A    between atoms: C6_11  and  C7_13 
REMARK    3  A    between atoms: N3_15  and  C9_16 
REMARK    4  A    between atoms: C15_23  and  C16_24 
REMARK    5  A    between atoms: C16_24  and  O4_25 
REMARK    6  A    between atoms: O4_25  and  O5_26 
REMARK    7  A    between atoms: O5_26  and  N4_27 
REMARK    8  A    between atoms: N4_27  and  N5_28 
ROOT
HETATM    1  C1  UNL     1       6.930  16.826  11.287  1.00  0.00     0.109 C 
HETATM    2  S1  UNL     1       5.935  15.712  12.404  1.00  0.00    -0.151 SA
HETATM    3  C2  UNL     1       5.200  14.394  11.322  1.00  0.00     0.155 C 
HETATM    4  C3  UNL     1       6.344  13.608  10.790  1.00  0.00     0.222 C 
HETATM    5  O1  UNL     1       7.082  12.683  11.222  1.00  0.00    -0.278 OA
HETATM    6  N1  UNL     1       6.309  14.460   9.581  1.00  0.00    -0.178 NA
HETATM    7  C4  UNL     1       7.326  15.381   9.217  1.00  0.00     0.230 C 
HETATM    8  O2  UNL     1       7.684  15.493   8.015  1.00  0.00    -0.277 OA
HETATM    9  C5  UNL     1       7.970  16.204  10.309  1.00  0.00     0.181 C 
HETATM   10  C15 UNL     1       4.918  14.706   9.933  1.00  0.00     0.123 C 
ENDROOT
BRANCH   9  11
HETATM   11  N2  UNL     1       8.969  15.413  11.034  1.00  0.00    -0.343 N 
HETATM   12  C6  UNL     1      10.380  15.612  10.865  1.00  0.00     0.262 C 
HETATM   13  O3  UNL     1      10.814  16.414   9.997  1.00  0.00    -0.267 OA
HETATM   14  H5  UNL     1       8.659  14.632  11.655  1.00  0.00     0.163 HD
BRANCH  12  15
HETATM   15  C7  UNL     1      11.332  14.873  11.699  1.00  0.00     0.106 A 
HETATM   16  C8  UNL     1      11.232  13.762  12.592  1.00  0.00     0.131 A 
HETATM   17  N3  UNL     1      12.573  13.722  12.949  1.00  0.00    -0.291 N 
HETATM   18  S2  UNL     1      12.936  14.999  11.978  1.00  0.00    -0.001 SA
BRANCH  17  19
HETATM   19  C9  UNL     1      13.346  12.890  13.823  1.00  0.00     0.045 A 
HETATM   20  C10 UNL     1      13.235  13.028  15.217  1.00  0.00     0.030 A 
HETATM   21  C11 UNL     1      13.988  12.213  16.067  1.00  0.00     0.002 A 
HETATM   22  C12 UNL     1      14.856  11.257  15.533  1.00  0.00     0.000 A 
HETATM   23  C13 UNL     1      14.972  11.115  14.149  1.00  0.00     0.002 A 
HETATM   24  C14 UNL     1      14.222  11.929  13.295  1.00  0.00     0.030 A 
ENDBRANCH  17  19
ENDBRANCH  12  15
ENDBRANCH   9  11
BRANCH  10  25
HETATM   25  C16 UNL     1       4.336  16.078   9.519  1.00  0.00     0.234 C 
BRANCH  25  26
HETATM   26  O4  UNL     1       3.676  15.990   8.280  1.00  0.00    -0.220 OA
BRANCH  26  27
HETATM   27  O5  UNL     1       4.517  16.472   7.383  1.00  0.00    -0.127 OA
BRANCH  27  28
HETATM   28  N4  UNL     1       4.876  15.400   6.634  1.00  0.00    -0.105 NA
HETATM   29  H15 UNL     1       4.064  15.195   6.008  1.00  0.00     0.177 HD
BRANCH  28  30
HETATM   30  N5  UNL     1       5.938  15.810   5.816  1.00  0.00    -0.245 NA
HETATM   31  H16 UNL     1       5.579  16.574   5.199  1.00  0.00     0.139 HD
HETATM   32  H17 UNL     1       6.164  15.011   5.182  1.00  0.00     0.139 HD
ENDBRANCH  28  30
ENDBRANCH  27  28
ENDBRANCH  26  27
ENDBRANCH  25  26
ENDBRANCH  10  25
TORSDOF 8
ENDMDL
MODEL 9
REMARK VINA RESULT:    -6.217      6.038      8.510
REMARK INTER + INTRA:          -9.885
REMARK INTER:                  -8.942
REMARK INTRA:                  -0.942
REMARK UNBOUND:                -0.942
REMARK  8 active torsions:
REMARK  status: ('A' for Active; 'I' for Inactive)
REMARK    1  A    between atoms: C5_9  and  N2_10 
REMARK       I    between atoms: N2_10  and  C6_11 
REMARK    2  A    between atoms: C6_11  and  C7_13 
REMARK    3  A    between atoms: N3_15  and  C9_16 
REMARK    4  A    between atoms: C15_23  and  C16_24 
REMARK    5  A    between atoms: C16_24  and  O4_25 
REMARK    6  A    between atoms: O4_25  and  O5_26 
REMARK    7  A    between atoms: O5_26  and  N4_27 
REMARK    8  A    between atoms: N4_27  and  N5_28 
ROOT
HETATM    1  C1  UNL     1       5.848  14.045  11.706  1.00  0.00     0.109 C 
HETATM    2  S1  UNL     1       6.488  14.256   9.967  1.00  0.00    -0.151 SA
HETATM    3  C2  UNL     1       6.213  16.035   9.512  1.00  0.00     0.155 C 
HETATM    4  C3  UNL     1       7.078  16.834  10.420  1.00  0.00     0.222 C 
HETATM    5  O1  UNL     1       8.297  17.149  10.459  1.00  0.00    -0.278 OA
HETATM    6  N1  UNL     1       5.911  17.001  11.312  1.00  0.00    -0.178 NA
HETATM    7  C4  UNL     1       5.803  16.435  12.610  1.00  0.00     0.230 C 
HETATM    8  O2  UNL     1       5.306  17.100  13.556  1.00  0.00    -0.277 OA
HETATM    9  C5  UNL     1       6.312  15.028  12.822  1.00  0.00     0.181 C 
HETATM   10  C15 UNL     1       5.109  16.752  10.124  1.00  0.00     0.123 C 
ENDROOT
BRANCH   9  11
HETATM   11  N2  UNL     1       7.772  15.019  12.957  1.00  0.00    -0.343 N 
HETATM   12  C6  UNL     1       8.434  15.325  14.193  1.00  0.00     0.262 C 
HETATM   13  O3  UNL     1       7.774  15.717  15.192  1.00  0.00    -0.267 OA
HETATM   14  H5  UNL     1       8.368  14.846  12.117  1.00  0.00     0.163 HD
BRANCH  12  15
HETATM   15  C7  UNL     1       9.888  15.190  14.302  1.00  0.00     0.106 A 
HETATM   16  C8  UNL     1      10.766  14.452  15.155  1.00  0.00     0.131 A 
HETATM   17  N3  UNL     1      11.952  14.896  14.588  1.00  0.00    -0.291 N 
HETATM   18  S2  UNL     1      11.154  15.829  13.493  1.00  0.00    -0.001 SA
BRANCH  17  19
HETATM   19  C9  UNL     1      13.338  14.641  14.850  1.00  0.00     0.045 A 
HETATM   20  C10 UNL     1      13.881  13.365  14.621  1.00  0.00     0.030 A 
HETATM   21  C11 UNL     1      15.235  13.121  14.874  1.00  0.00     0.002 A 
HETATM   22  C12 UNL     1      16.053  14.145  15.357  1.00  0.00     0.000 A 
HETATM   23  C13 UNL     1      15.520  15.415  15.586  1.00  0.00     0.002 A 
HETATM   24  C14 UNL     1      14.167  15.664  15.336  1.00  0.00     0.030 A 
ENDBRANCH  17  19
ENDBRANCH  12  15
ENDBRANCH   9  11
BRANCH  10  25
HETATM   25  C16 UNL     1       3.737  16.074  10.348  1.00  0.00     0.234 C 
BRANCH  25  26
HETATM   26  O4  UNL     1       2.858  16.933  11.032  1.00  0.00    -0.220 OA
BRANCH  26  27
HETATM   27  O5  UNL     1       2.175  16.168  11.866  1.00  0.00    -0.127 OA
BRANCH  27  28
HETATM   28  N4  UNL     1       2.337  16.751  13.080  1.00  0.00    -0.105 NA
HETATM   29  H15 UNL     1       1.423  17.201  13.312  1.00  0.00     0.177 HD
BRANCH  28  30
HETATM   30  N5  UNL     1       2.537  15.716  14.005  1.00  0.00    -0.245 NA
HETATM   31  H16 UNL     1       1.928  14.917  13.717  1.00  0.00     0.139 HD
HETATM   32  H17 UNL     1       2.161  16.047  14.923  1.00  0.00     0.139 HD
ENDBRANCH  28  30
ENDBRANCH  27  28
ENDBRANCH  26  27
ENDBRANCH  25  26
ENDBRANCH  10  25
TORSDOF 8
ENDMDL
