MODEL 1
REMARK VINA RESULT:    -7.507      0.000      0.000
REMARK INTER + INTRA:         -11.297
REMARK INTER:                 -10.508
REMARK INTRA:                  -0.790
REMARK UNBOUND:                -0.499
REMARK  8 active torsions:
REMARK  status: ('A' for Active; 'I' for Inactive)
REMARK    1  A    between atoms: C4_9  and  N2_10 
REMARK       I    between atoms: N2_10  and  C5_11 
REMARK    2  A    between atoms: C5_11  and  C6_13 
REMARK    3  A    between atoms: N3_15  and  C8_16 
REMARK    4  A    between atoms: C14_23  and  C15_24 
REMARK    5  A    between atoms: C15_24  and  O4_25 
REMARK    6  A    between atoms: O4_25  and  O5_26 
REMARK    7  A    between atoms: O5_26  and  N4_27 
REMARK    8  A    between atoms: N4_27  and  N5_28 
ROOT
HETATM    1  S1  UNL     1      11.071  14.232  15.277  1.00  0.00    -0.062 SA
HETATM    2  S2  UNL     1      11.310  16.359  14.893  1.00  0.00    -0.079 SA
HETATM    3  C1  UNL     1      12.367  16.447  13.368  1.00  0.00     0.166 C 
HETATM    4  C2  UNL     1      11.438  16.133  12.247  1.00  0.00     0.223 C 
HETATM    5  O1  UNL     1      10.554  16.762  11.608  1.00  0.00    -0.278 OA
HETATM    6  N1  UNL     1      11.917  14.734  12.292  1.00  0.00    -0.177 NA
HETATM    7  C3  UNL     1      11.124  13.592  12.600  1.00  0.00     0.240 C 
HETATM    8  O2  UNL     1      11.226  12.545  11.907  1.00  0.00    -0.276 OA
HETATM    9  C4  UNL     1      10.176  13.660  13.772  1.00  0.00     0.245 C 
HETATM   10  C14 UNL     1      13.110  15.280  12.926  1.00  0.00     0.124 C 
ENDROOT
BRANCH   9  11
HETATM   11  N2  UNL     1       9.018  14.510  13.484  1.00  0.00    -0.334 N 
HETATM   12  C5  UNL     1       7.830  13.999  12.864  1.00  0.00     0.262 C 
HETATM   13  O3  UNL     1       7.775  12.801  12.476  1.00  0.00    -0.267 OA
HETATM   14  H3  UNL     1       9.078  15.538  13.653  1.00  0.00     0.164 HD
BRANCH  12  15
HETATM   15  C6  UNL     1       6.666  14.867  12.678  1.00  0.00     0.106 A 
HETATM   16  C7  UNL     1       6.116  15.974  13.397  1.00  0.00     0.131 A 
HETATM   17  N3  UNL     1       5.034  16.192  12.554  1.00  0.00    -0.291 N 
HETATM   18  S3  UNL     1       5.469  14.948  11.569  1.00  0.00    -0.001 SA
BRANCH  17  19
HETATM   19  C8  UNL     1       3.955  17.134  12.545  1.00  0.00     0.045 A 
HETATM   20  C9  UNL     1       2.855  16.962  13.401  1.00  0.00     0.030 A 
HETATM   21  C10 UNL     1       1.802  17.883  13.390  1.00  0.00     0.002 A 
HETATM   22  C11 UNL     1       1.841  18.981  12.526  1.00  0.00     0.000 A 
HETATM   23  C12 UNL     1       2.932  19.159  11.671  1.00  0.00     0.002 A 
HETATM   24  C13 UNL     1       3.987  18.240  11.679  1.00  0.00     0.030 A 
ENDBRANCH  17  19
ENDBRANCH  12  15
ENDBRANCH   9  11
BRANCH  10  25
HETATM   25  C15 UNL     1      13.830  14.393  13.968  1.00  0.00     0.234 C 
BRANCH  25  26
HETATM   26  O4  UNL     1      14.393  13.279  13.320  1.00  0.00    -0.220 OA
BRANCH  26  27
HETATM   27  O5  UNL     1      13.956  12.212  13.975  1.00  0.00    -0.127 OA
BRANCH  27  28
HETATM   28  N4  UNL     1      13.971  11.175  13.086  1.00  0.00    -0.105 NA
HETATM   29  H13 UNL     1      13.773  11.509  12.109  1.00  0.00     0.177 HD
BRANCH  28  30
HETATM   30  N5  UNL     1      15.239  10.568  13.140  1.00  0.00    -0.245 NA
HETATM   31  H14 UNL     1      15.914  11.298  13.464  1.00  0.00     0.139 HD
HETATM   32  H15 UNL     1      15.223   9.824  13.876  1.00  0.00     0.139 HD
ENDBRANCH  28  30
ENDBRANCH  27  28
ENDBRANCH  26  27
ENDBRANCH  25  26
ENDBRANCH  10  25
TORSDOF 8
ENDMDL
MODEL 2
REMARK VINA RESULT:    -7.279      2.817      3.307
REMARK INTER + INTRA:         -10.970
REMARK INTER:                  -9.897
REMARK INTRA:                  -1.073
REMARK UNBOUND:                -0.499
REMARK  8 active torsions:
REMARK  status: ('A' for Active; 'I' for Inactive)
REMARK    1  A    between atoms: C4_9  and  N2_10 
REMARK       I    between atoms: N2_10  and  C5_11 
REMARK    2  A    between atoms: C5_11  and  C6_13 
REMARK    3  A    between atoms: N3_15  and  C8_16 
REMARK    4  A    between atoms: C14_23  and  C15_24 
REMARK    5  A    between atoms: C15_24  and  O4_25 
REMARK    6  A    between atoms: O4_25  and  O5_26 
REMARK    7  A    between atoms: O5_26  and  N4_27 
REMARK    8  A    between atoms: N4_27  and  N5_28 
ROOT
HETATM    1  S1  UNL     1      12.457  16.359  14.435  1.00  0.00    -0.062 SA
HETATM    2  S2  UNL     1      12.810  15.948  12.329  1.00  0.00    -0.079 SA
HETATM    3  C1  UNL     1      13.569  14.252  12.301  1.00  0.00     0.166 C 
HETATM    4  C2  UNL     1      12.423  13.324  12.508  1.00  0.00     0.223 C 
HETATM    5  O1  UNL     1      11.496  12.864  11.791  1.00  0.00    -0.278 OA
HETATM    6  N1  UNL     1      12.775  13.272  13.944  1.00  0.00    -0.177 NA
HETATM    7  C3  UNL     1      11.954  13.717  15.019  1.00  0.00     0.240 C 
HETATM    8  O2  UNL     1      11.831  13.012  16.055  1.00  0.00    -0.276 OA
HETATM    9  C4  UNL     1      11.251  15.046  14.894  1.00  0.00     0.245 C 
HETATM   10  C14 UNL     1      14.109  13.673  13.518  1.00  0.00     0.124 C 
ENDROOT
BRANCH   9  11
HETATM   11  N2  UNL     1      10.140  14.983  13.940  1.00  0.00    -0.334 N 
HETATM   12  C5  UNL     1       8.785  15.255  14.325  1.00  0.00     0.262 C 
HETATM   13  O3  UNL     1       8.496  15.487  15.529  1.00  0.00    -0.267 OA
HETATM   14  H3  UNL     1      10.315  14.650  12.967  1.00  0.00     0.164 HD
BRANCH  12  15
HETATM   15  C6  UNL     1       7.723  15.268  13.318  1.00  0.00     0.106 A 
HETATM   16  C7  UNL     1       7.541  14.643  12.045  1.00  0.00     0.131 A 
HETATM   17  N3  UNL     1       6.293  15.186  11.775  1.00  0.00    -0.291 N 
HETATM   18  S3  UNL     1       6.274  16.013  13.197  1.00  0.00    -0.001 SA
BRANCH  17  19
HETATM   19  C8  UNL     1       5.375  15.073  10.681  1.00  0.00     0.045 A 
HETATM   20  C9  UNL     1       5.502  15.905   9.557  1.00  0.00     0.030 A 
HETATM   21  C10 UNL     1       4.604  15.793   8.491  1.00  0.00     0.002 A 
HETATM   22  C11 UNL     1       3.574  14.850   8.539  1.00  0.00     0.000 A 
HETATM   23  C12 UNL     1       3.441  14.018   9.653  1.00  0.00     0.002 A 
HETATM   24  C13 UNL     1       4.337  14.127  10.722  1.00  0.00     0.030 A 
ENDBRANCH  17  19
ENDBRANCH  12  15
ENDBRANCH   9  11
BRANCH  10  25
HETATM   25  C15 UNL     1      14.928  14.558  14.487  1.00  0.00     0.234 C 
BRANCH  25  26
HETATM   26  O4  UNL     1      15.497  13.750  15.486  1.00  0.00    -0.220 OA
BRANCH  26  27
HETATM   27  O5  UNL     1      15.414  12.502  15.044  1.00  0.00    -0.127 OA
BRANCH  27  28
HETATM   28  N4  UNL     1      14.834  11.771  16.041  1.00  0.00    -0.105 NA
HETATM   29  H13 UNL     1      14.227  12.374  16.651  1.00  0.00     0.177 HD
BRANCH  28  30
HETATM   30  N5  UNL     1      14.062  10.755  15.448  1.00  0.00    -0.245 NA
HETATM   31  H14 UNL     1      13.555  10.266  16.220  1.00  0.00     0.139 HD
HETATM   32  H15 UNL     1      13.333  11.198  14.841  1.00  0.00     0.139 HD
ENDBRANCH  28  30
ENDBRANCH  27  28
ENDBRANCH  26  27
ENDBRANCH  25  26
ENDBRANCH  10  25
TORSDOF 8
ENDMDL
MODEL 3
REMARK VINA RESULT:    -7.202      3.240      3.644
REMARK INTER + INTRA:         -10.858
REMARK INTER:                 -10.176
REMARK INTRA:                  -0.682
REMARK UNBOUND:                -0.499
REMARK  8 active torsions:
REMARK  status: ('A' for Active; 'I' for Inactive)
REMARK    1  A    between atoms: C4_9  and  N2_10 
REMARK       I    between atoms: N2_10  and  C5_11 
REMARK    2  A    between atoms: C5_11  and  C6_13 
REMARK    3  A    between atoms: N3_15  and  C8_16 
REMARK    4  A    between atoms: C14_23  and  C15_24 
REMARK    5  A    between atoms: C15_24  and  O4_25 
REMARK    6  A    between atoms: O4_25  and  O5_26 
REMARK    7  A    between atoms: O5_26  and  N4_27 
REMARK    8  A    between atoms: N4_27  and  N5_28 
ROOT
HETATM    1  S1  UNL     1      10.821  13.804  14.187  1.00  0.00    -0.062 SA
HETATM    2  S2  UNL     1      11.590  15.739  13.558  1.00  0.00    -0.079 SA
HETATM    3  C1  UNL     1      13.254  15.367  12.819  1.00  0.00     0.166 C 
HETATM    4  C2  UNL     1      12.951  14.811  11.471  1.00  0.00     0.223 C 
HETATM    5  O1  UNL     1      12.620  15.288  10.355  1.00  0.00    -0.278 OA
HETATM    6  N1  UNL     1      13.090  13.453  12.042  1.00  0.00    -0.177 NA
HETATM    7  C3  UNL     1      12.060  12.473  12.121  1.00  0.00     0.240 C 
HETATM    8  O2  UNL     1      12.300  11.277  11.811  1.00  0.00    -0.276 OA
HETATM    9  C4  UNL     1      10.690  12.896  12.591  1.00  0.00     0.245 C 
HETATM   10  C14 UNL     1      13.898  14.090  13.075  1.00  0.00     0.124 C 
ENDROOT
BRANCH   9  11
HETATM   11  N2  UNL     1       9.992  13.693  11.578  1.00  0.00    -0.334 N 
HETATM   12  C5  UNL     1       8.562  13.711  11.471  1.00  0.00     0.262 C 
HETATM   13  O3  UNL     1       7.856  12.972  12.208  1.00  0.00    -0.267 OA
HETATM   14  H3  UNL     1      10.543  14.203  10.853  1.00  0.00     0.164 HD
BRANCH  12  15
HETATM   15  C6  UNL     1       7.908  14.592  10.502  1.00  0.00     0.106 A 
HETATM   16  C7  UNL     1       8.353  15.342   9.369  1.00  0.00     0.131 A 
HETATM   17  N3  UNL     1       7.118  15.884   9.039  1.00  0.00    -0.291 N 
HETATM   18  S3  UNL     1       6.376  15.119  10.292  1.00  0.00    -0.001 SA
BRANCH  17  19
HETATM   19  C8  UNL     1       6.665  16.769   8.008  1.00  0.00     0.045 A 
HETATM   20  C9  UNL     1       6.642  18.157   8.222  1.00  0.00     0.030 A 
HETATM   21  C10 UNL     1       6.198  19.018   7.213  1.00  0.00     0.002 A 
HETATM   22  C11 UNL     1       5.775  18.501   5.986  1.00  0.00     0.000 A 
HETATM   23  C12 UNL     1       5.795  17.122   5.765  1.00  0.00     0.002 A 
HETATM   24  C13 UNL     1       6.238  16.256   6.771  1.00  0.00     0.030 A 
ENDBRANCH  17  19
ENDBRANCH  12  15
ENDBRANCH   9  11
BRANCH  10  25
HETATM   25  C15 UNL     1      13.846  13.479  14.494  1.00  0.00     0.234 C 
BRANCH  25  26
HETATM   26  O4  UNL     1      14.971  12.659  14.688  1.00  0.00    -0.220 OA
BRANCH  26  27
HETATM   27  O5  UNL     1      14.626  11.451  14.260  1.00  0.00    -0.127 OA
BRANCH  27  28
HETATM   28  N4  UNL     1      14.244  10.741  15.361  1.00  0.00    -0.105 NA
HETATM   29  H13 UNL     1      13.376  10.180  15.170  1.00  0.00     0.177 HD
BRANCH  28  30
HETATM   30  N5  UNL     1      15.302   9.884  15.720  1.00  0.00    -0.245 NA
HETATM   31  H14 UNL     1      15.141   9.600  16.713  1.00  0.00     0.139 HD
HETATM   32  H15 UNL     1      15.238   9.013  15.143  1.00  0.00     0.139 HD
ENDBRANCH  28  30
ENDBRANCH  27  28
ENDBRANCH  26  27
ENDBRANCH  25  26
ENDBRANCH  10  25
TORSDOF 8
ENDMDL
MODEL 4
REMARK VINA RESULT:    -7.139      1.793      2.282
REMARK INTER + INTRA:         -10.768
REMARK INTER:                  -9.932
REMARK INTRA:                  -0.836
REMARK UNBOUND:                -0.499
REMARK  8 active torsions:
REMARK  status: ('A' for Active; 'I' for Inactive)
REMARK    1  A    between atoms: C4_9  and  N2_10 
REMARK       I    between atoms: N2_10  and  C5_11 
REMARK    2  A    between atoms: C5_11  and  C6_13 
REMARK    3  A    between atoms: N3_15  and  C8_16 
REMARK    4  A    between atoms: C14_23  and  C15_24 
REMARK    5  A    between atoms: C15_24  and  O4_25 
REMARK    6  A    between atoms: O4_25  and  O5_26 
REMARK    7  A    between atoms: O5_26  and  N4_27 
REMARK    8  A    between atoms: N4_27  and  N5_28 
ROOT
HETATM    1  S1  UNL     1      12.622  13.693  16.090  1.00  0.00    -0.062 SA
HETATM    2  S2  UNL     1      12.806  15.859  16.158  1.00  0.00    -0.079 SA
HETATM    3  C1  UNL     1      14.165  16.254  14.954  1.00  0.00     0.166 C 
HETATM    4  C2  UNL     1      13.525  16.138  13.614  1.00  0.00     0.223 C 
HETATM    5  O1  UNL     1      12.767  16.858  12.913  1.00  0.00    -0.278 OA
HETATM    6  N1  UNL     1      14.069  14.766  13.515  1.00  0.00    -0.177 NA
HETATM    7  C3  UNL     1      13.300  13.570  13.425  1.00  0.00     0.240 C 
HETATM    8  O2  UNL     1      13.617  12.675  12.597  1.00  0.00    -0.276 OA
HETATM    9  C4  UNL     1      12.116  13.397  14.344  1.00  0.00     0.245 C 
HETATM   10  C14 UNL     1      15.058  15.206  14.490  1.00  0.00     0.124 C 
ENDROOT
BRANCH   9  11
HETATM   11  N2  UNL     1      10.999  14.263  13.957  1.00  0.00    -0.334 N 
HETATM   12  C5  UNL     1      10.079  13.904  12.917  1.00  0.00     0.262 C 
HETATM   13  O3  UNL     1      10.250  12.852  12.245  1.00  0.00    -0.267 OA
HETATM   14  H3  UNL     1      10.908  15.210  14.385  1.00  0.00     0.164 HD
BRANCH  12  15
HETATM   15  C6  UNL     1       8.926  14.760  12.628  1.00  0.00     0.106 A 
HETATM   16  C7  UNL     1       7.566  14.793  13.068  1.00  0.00     0.131 A 
HETATM   17  N3  UNL     1       7.179  15.892  12.313  1.00  0.00    -0.291 N 
HETATM   18  S3  UNL     1       8.681  16.054  11.661  1.00  0.00    -0.001 SA
BRANCH  17  19
HETATM   19  C8  UNL     1       5.948  16.608  12.159  1.00  0.00     0.045 A 
HETATM   20  C9  UNL     1       5.154  16.904  13.279  1.00  0.00     0.030 A 
HETATM   21  C10 UNL     1       3.951  17.602  13.126  1.00  0.00     0.002 A 
HETATM   22  C11 UNL     1       3.534  18.008  11.856  1.00  0.00     0.000 A 
HETATM   23  C12 UNL     1       4.318  17.717  10.737  1.00  0.00     0.002 A 
HETATM   24  C13 UNL     1       5.522  17.019  10.885  1.00  0.00     0.030 A 
ENDBRANCH  17  19
ENDBRANCH  12  15
ENDBRANCH   9  11
BRANCH  10  25
HETATM   25  C15 UNL     1      15.585  14.154  15.492  1.00  0.00     0.234 C 
BRANCH  25  26
HETATM   26  O4  UNL     1      16.534  13.337  14.852  1.00  0.00    -0.220 OA
BRANCH  26  27
HETATM   27  O5  UNL     1      15.982  12.134  14.758  1.00  0.00    -0.127 OA
BRANCH  27  28
HETATM   28  N4  UNL     1      16.293  11.658  13.516  1.00  0.00    -0.105 NA
HETATM   29  H13 UNL     1      17.308  11.390  13.454  1.00  0.00     0.177 HD
BRANCH  28  30
HETATM   30  N5  UNL     1      15.482  10.538  13.259  1.00  0.00    -0.245 NA
HETATM   31  H14 UNL     1      14.879  10.397  14.102  1.00  0.00     0.139 HD
HETATM   32  H15 UNL     1      14.840  10.764  12.464  1.00  0.00     0.139 HD
ENDBRANCH  28  30
ENDBRANCH  27  28
ENDBRANCH  26  27
ENDBRANCH  25  26
ENDBRANCH  10  25
TORSDOF 8
ENDMDL
MODEL 5
REMARK VINA RESULT:    -7.095      2.787      3.379
REMARK INTER + INTRA:         -10.706
REMARK INTER:                  -9.833
REMARK INTRA:                  -0.873
REMARK UNBOUND:                -0.499
REMARK  8 active torsions:
REMARK  status: ('A' for Active; 'I' for Inactive)
REMARK    1  A    between atoms: C4_9  and  N2_10 
REMARK       I    between atoms: N2_10  and  C5_11 
REMARK    2  A    between atoms: C5_11  and  C6_13 
REMARK    3  A    between atoms: N3_15  and  C8_16 
REMARK    4  A    between atoms: C14_23  and  C15_24 
REMARK    5  A    between atoms: C15_24  and  O4_25 
REMARK    6  A    between atoms: O4_25  and  O5_26 
REMARK    7  A    between atoms: O5_26  and  N4_27 
REMARK    8  A    between atoms: N4_27  and  N5_28 
ROOT
HETATM    1  S1  UNL     1      11.466  13.931  15.029  1.00  0.00    -0.062 SA
HETATM    2  S2  UNL     1      12.112  15.891  14.343  1.00  0.00    -0.079 SA
HETATM    3  C1  UNL     1      13.776  15.594  13.570  1.00  0.00     0.166 C 
HETATM    4  C2  UNL     1      13.472  14.994  12.242  1.00  0.00     0.223 C 
HETATM    5  O1  UNL     1      13.089  15.429  11.124  1.00  0.00    -0.278 OA
HETATM    6  N1  UNL     1      13.699  13.659  12.835  1.00  0.00    -0.177 NA
HETATM    7  C3  UNL     1      12.726  12.626  12.959  1.00  0.00     0.240 C 
HETATM    8  O2  UNL     1      13.023  11.438  12.667  1.00  0.00    -0.276 OA
HETATM    9  C4  UNL     1      11.346  12.984  13.455  1.00  0.00     0.245 C 
HETATM   10  C14 UNL     1      14.495  14.360  13.835  1.00  0.00     0.124 C 
ENDROOT
BRANCH   9  11
HETATM   11  N2  UNL     1      10.582  13.720  12.444  1.00  0.00    -0.334 N 
HETATM   12  C5  UNL     1       9.165  13.560  12.291  1.00  0.00     0.262 C 
HETATM   13  O3  UNL     1       8.538  12.713  12.981  1.00  0.00    -0.267 OA
HETATM   14  H3  UNL     1      11.084  14.320  11.754  1.00  0.00     0.164 HD
BRANCH  12  15
HETATM   15  C6  UNL     1       8.432  14.384  11.328  1.00  0.00     0.106 A 
HETATM   16  C7  UNL     1       7.393  14.132  10.378  1.00  0.00     0.131 A 
HETATM   17  N3  UNL     1       7.297  15.430   9.896  1.00  0.00    -0.291 N 
HETATM   18  S3  UNL     1       8.484  15.961  10.903  1.00  0.00    -0.001 SA
BRANCH  17  19
HETATM   19  C8  UNL     1       6.481  16.063   8.903  1.00  0.00     0.045 A 
HETATM   20  C9  UNL     1       6.952  16.219   7.590  1.00  0.00     0.030 A 
HETATM   21  C10 UNL     1       6.154  16.839   6.622  1.00  0.00     0.002 A 
HETATM   22  C11 UNL     1       4.880  17.304   6.959  1.00  0.00     0.000 A 
HETATM   23  C12 UNL     1       4.403  17.152   8.264  1.00  0.00     0.002 A 
HETATM   24  C13 UNL     1       5.199  16.533   9.234  1.00  0.00     0.030 A 
ENDBRANCH  17  19
ENDBRANCH  12  15
ENDBRANCH   9  11
BRANCH  10  25
HETATM   25  C15 UNL     1      14.511  13.777  15.266  1.00  0.00     0.234 C 
BRANCH  25  26
HETATM   26  O4  UNL     1      15.336  12.639  15.296  1.00  0.00    -0.220 OA
BRANCH  26  27
HETATM   27  O5  UNL     1      14.581  11.647  15.750  1.00  0.00    -0.127 OA
BRANCH  27  28
HETATM   28  N4  UNL     1      14.847  10.563  14.964  1.00  0.00    -0.105 NA
HETATM   29  H13 UNL     1      15.403  10.836  14.114  1.00  0.00     0.177 HD
BRANCH  28  30
HETATM   30  N5  UNL     1      15.569   9.630  15.732  1.00  0.00    -0.245 NA
HETATM   31  H14 UNL     1      16.318   9.242  15.116  1.00  0.00     0.139 HD
HETATM   32  H15 UNL     1      16.051  10.139  16.510  1.00  0.00     0.139 HD
ENDBRANCH  28  30
ENDBRANCH  27  28
ENDBRANCH  26  27
ENDBRANCH  25  26
ENDBRANCH  10  25
TORSDOF 8
ENDMDL
MODEL 6
REMARK VINA RESULT:    -7.092      1.830      2.411
REMARK INTER + INTRA:         -10.700
REMARK INTER:                 -10.351
REMARK INTRA:                  -0.349
REMARK UNBOUND:                -0.499
REMARK  8 active torsions:
REMARK  status: ('A' for Active; 'I' for Inactive)
REMARK    1  A    between atoms: C4_9  and  N2_10 
REMARK       I    between atoms: N2_10  and  C5_11 
REMARK    2  A    between atoms: C5_11  and  C6_13 
REMARK    3  A    between atoms: N3_15  and  C8_16 
REMARK    4  A    between atoms: C14_23  and  C15_24 
REMARK    5  A    between atoms: C15_24  and  O4_25 
REMARK    6  A    between atoms: O4_25  and  O5_26 
REMARK    7  A    between atoms: O5_26  and  N4_27 
REMARK    8  A    between atoms: N4_27  and  N5_28 
ROOT
HETATM    1  S1  UNL     1      11.231  13.960  11.539  1.00  0.00    -0.062 SA
HETATM    2  S2  UNL     1      10.615  13.312  13.522  1.00  0.00    -0.079 SA
HETATM    3  C1  UNL     1      11.796  14.157  14.682  1.00  0.00     0.166 C 
HETATM    4  C2  UNL     1      11.307  15.562  14.757  1.00  0.00     0.223 C 
HETATM    5  O1  UNL     1      10.374  16.160  15.355  1.00  0.00    -0.278 OA
HETATM    6  N1  UNL     1      12.314  15.927  13.738  1.00  0.00    -0.177 NA
HETATM    7  C3  UNL     1      12.036  16.435  12.437  1.00  0.00     0.240 C 
HETATM    8  O2  UNL     1      12.694  17.407  11.982  1.00  0.00    -0.276 OA
HETATM    9  C4  UNL     1      10.952  15.779  11.618  1.00  0.00     0.245 C 
HETATM   10  C14 UNL     1      13.029  14.735  14.176  1.00  0.00     0.124 C 
ENDROOT
BRANCH   9  11
HETATM   11  N2  UNL     1       9.617  16.093  12.135  1.00  0.00    -0.334 N 
HETATM   12  C5  UNL     1       8.433  15.929  11.343  1.00  0.00     0.262 C 
HETATM   13  O3  UNL     1       8.513  15.576  10.137  1.00  0.00    -0.267 OA
HETATM   14  H3  UNL     1       9.519  16.529  13.078  1.00  0.00     0.164 HD
BRANCH  12  15
HETATM   15  C6  UNL     1       7.115  16.171  11.933  1.00  0.00     0.106 A 
HETATM   16  C7  UNL     1       5.868  16.665  11.435  1.00  0.00     0.131 A 
HETATM   17  N3  UNL     1       5.171  16.577  12.632  1.00  0.00    -0.291 N 
HETATM   18  S3  UNL     1       6.485  15.994  13.430  1.00  0.00    -0.001 SA
BRANCH  17  19
HETATM   19  C8  UNL     1       3.826  16.880  13.022  1.00  0.00     0.045 A 
HETATM   20  C9  UNL     1       2.956  15.855  13.427  1.00  0.00     0.030 A 
HETATM   21  C10 UNL     1       1.642  16.153  13.806  1.00  0.00     0.002 A 
HETATM   22  C11 UNL     1       1.190  17.475  13.784  1.00  0.00     0.000 A 
HETATM   23  C12 UNL     1       2.050  18.501  13.383  1.00  0.00     0.002 A 
HETATM   24  C13 UNL     1       3.364  18.207  13.003  1.00  0.00     0.030 A 
ENDBRANCH  17  19
ENDBRANCH  12  15
ENDBRANCH   9  11
BRANCH  10  25
HETATM   25  C15 UNL     1      13.852  13.970  13.115  1.00  0.00     0.234 C 
BRANCH  25  26
HETATM   26  O4  UNL     1      14.427  12.831  13.705  1.00  0.00    -0.220 OA
BRANCH  26  27
HETATM   27  O5  UNL     1      14.100  11.807  12.927  1.00  0.00    -0.127 OA
BRANCH  27  28
HETATM   28  N4  UNL     1      14.962  10.793  13.232  1.00  0.00    -0.105 NA
HETATM   29  H13 UNL     1      15.926  10.989  12.860  1.00  0.00     0.177 HD
BRANCH  28  30
HETATM   30  N5  UNL     1      15.005  10.659  14.632  1.00  0.00    -0.245 NA
HETATM   31  H14 UNL     1      15.692  11.363  14.986  1.00  0.00     0.139 HD
HETATM   32  H15 UNL     1      14.071  10.926  15.023  1.00  0.00     0.139 HD
ENDBRANCH  28  30
ENDBRANCH  27  28
ENDBRANCH  26  27
ENDBRANCH  25  26
ENDBRANCH  10  25
TORSDOF 8
ENDMDL
MODEL 7
REMARK VINA RESULT:    -7.085      6.150      8.386
REMARK INTER + INTRA:         -10.690
REMARK INTER:                  -9.583
REMARK INTRA:                  -1.108
REMARK UNBOUND:                -0.499
REMARK  8 active torsions:
REMARK  status: ('A' for Active; 'I' for Inactive)
REMARK    1  A    between atoms: C4_9  and  N2_10 
REMARK       I    between atoms: N2_10  and  C5_11 
REMARK    2  A    between atoms: C5_11  and  C6_13 
REMARK    3  A    between atoms: N3_15  and  C8_16 
REMARK    4  A    between atoms: C14_23  and  C15_24 
REMARK    5  A    between atoms: C15_24  and  O4_25 
REMARK    6  A    between atoms: O4_25  and  O5_26 
REMARK    7  A    between atoms: O5_26  and  N4_27 
REMARK    8  A    between atoms: N4_27  and  N5_28 
ROOT
HETATM    1  S1  UNL     1      15.030  15.181  16.215  1.00  0.00    -0.062 SA
HETATM    2  S2  UNL     1      15.153  13.442  14.914  1.00  0.00    -0.079 SA
HETATM    3  C1  UNL     1      13.457  12.686  14.976  1.00  0.00     0.166 C 
HETATM    4  C2  UNL     1      12.627  13.552  14.094  1.00  0.00     0.223 C 
HETATM    5  O1  UNL     1      12.466  13.681  12.852  1.00  0.00    -0.278 OA
HETATM    6  N1  UNL     1      12.164  14.272  15.300  1.00  0.00    -0.177 NA
HETATM    7  C3  UNL     1      12.391  15.649  15.586  1.00  0.00     0.240 C 
HETATM    8  O2  UNL     1      11.455  16.366  16.027  1.00  0.00    -0.276 OA
HETATM    9  C4  UNL     1      13.770  16.219  15.363  1.00  0.00     0.245 C 
HETATM   10  C14 UNL     1      12.527  13.062  16.027  1.00  0.00     0.124 C 
ENDROOT
BRANCH   9  11
HETATM   11  N2  UNL     1      14.072  16.363  13.936  1.00  0.00    -0.334 N 
HETATM   12  C5  UNL     1      13.732  17.545  13.198  1.00  0.00     0.262 C 
HETATM   13  O3  UNL     1      13.086  18.478  13.746  1.00  0.00    -0.267 OA
HETATM   14  H3  UNL     1      14.471  15.555  13.410  1.00  0.00     0.164 HD
BRANCH  12  15
HETATM   15  C6  UNL     1      14.134  17.678  11.797  1.00  0.00     0.106 A 
HETATM   16  C7  UNL     1      14.164  18.759  10.861  1.00  0.00     0.131 A 
HETATM   17  N3  UNL     1      14.665  18.030   9.790  1.00  0.00    -0.291 N 
HETATM   18  S3  UNL     1      14.719  16.645  10.675  1.00  0.00    -0.001 SA
BRANCH  17  19
HETATM   19  C8  UNL     1      15.002  18.358   8.437  1.00  0.00     0.045 A 
HETATM   20  C9  UNL     1      16.318  18.714   8.099  1.00  0.00     0.030 A 
HETATM   21  C10 UNL     1      16.645  19.035   6.777  1.00  0.00     0.002 A 
HETATM   22  C11 UNL     1      15.662  19.003   5.785  1.00  0.00     0.000 A 
HETATM   23  C12 UNL     1      14.350  18.650   6.113  1.00  0.00     0.002 A 
HETATM   24  C13 UNL     1      14.019  18.329   7.434  1.00  0.00     0.030 A 
ENDBRANCH  17  19
ENDBRANCH  12  15
ENDBRANCH   9  11
BRANCH  10  25
HETATM   25  C15 UNL     1      13.039  13.231  17.476  1.00  0.00     0.234 C 
BRANCH  25  26
HETATM   26  O4  UNL     1      11.942  13.297  18.352  1.00  0.00    -0.220 OA
BRANCH  26  27
HETATM   27  O5  UNL     1      10.861  13.126  17.603  1.00  0.00    -0.127 OA
BRANCH  27  28
HETATM   28  N4  UNL     1       9.986  14.117  17.948  1.00  0.00    -0.105 NA
HETATM   29  H13 UNL     1      10.491  14.948  18.346  1.00  0.00     0.177 HD
BRANCH  28  30
HETATM   30  N5  UNL     1       9.273  14.494  16.795  1.00  0.00    -0.245 NA
HETATM   31  H14 UNL     1       9.585  15.460  16.545  1.00  0.00     0.139 HD
HETATM   32  H15 UNL     1       9.561  13.871  16.004  1.00  0.00     0.139 HD
ENDBRANCH  28  30
ENDBRANCH  27  28
ENDBRANCH  26  27
ENDBRANCH  25  26
ENDBRANCH  10  25
TORSDOF 8
ENDMDL
MODEL 8
REMARK VINA RESULT:    -6.976      3.674      8.486
REMARK INTER + INTRA:         -10.533
REMARK INTER:                  -9.362
REMARK INTRA:                  -1.171
REMARK UNBOUND:                -0.499
REMARK  8 active torsions:
REMARK  status: ('A' for Active; 'I' for Inactive)
REMARK    1  A    between atoms: C4_9  and  N2_10 
REMARK       I    between atoms: N2_10  and  C5_11 
REMARK    2  A    between atoms: C5_11  and  C6_13 
REMARK    3  A    between atoms: N3_15  and  C8_16 
REMARK    4  A    between atoms: C14_23  and  C15_24 
REMARK    5  A    between atoms: C15_24  and  O4_25 
REMARK    6  A    between atoms: O4_25  and  O5_26 
REMARK    7  A    between atoms: O5_26  and  N4_27 
REMARK    8  A    between atoms: N4_27  and  N5_28 
ROOT
HETATM    1  S1  UNL     1       6.602  17.177  10.804  1.00  0.00    -0.062 SA
HETATM    2  S2  UNL     1       5.532  16.013  12.298  1.00  0.00    -0.079 SA
HETATM    3  C1  UNL     1       5.075  14.436  11.427  1.00  0.00     0.166 C 
HETATM    4  C2  UNL     1       6.334  13.642  11.402  1.00  0.00     0.223 C 
HETATM    5  O1  UNL     1       6.971  12.939  12.230  1.00  0.00    -0.278 OA
HETATM    6  N1  UNL     1       6.572  14.132  10.028  1.00  0.00    -0.177 NA
HETATM    7  C3  UNL     1       7.668  14.938   9.609  1.00  0.00     0.240 C 
HETATM    8  O2  UNL     1       8.280  14.670   8.541  1.00  0.00    -0.276 OA
HETATM    9  C4  UNL     1       8.069  16.118  10.460  1.00  0.00     0.245 C 
HETATM   10  C14 UNL     1       5.133  14.358   9.978  1.00  0.00     0.124 C 
ENDROOT
BRANCH   9  11
HETATM   11  N2  UNL     1       8.725  15.693  11.700  1.00  0.00    -0.334 N 
HETATM   12  C5  UNL     1      10.118  15.356  11.750  1.00  0.00     0.262 C 
HETATM   13  O3  UNL     1      10.812  15.342  10.699  1.00  0.00    -0.267 OA
HETATM   14  H3  UNL     1       8.155  15.548  12.561  1.00  0.00     0.164 HD
BRANCH  12  15
HETATM   15  C6  UNL     1      10.748  15.024  13.029  1.00  0.00     0.106 A 
HETATM   16  C7  UNL     1      10.465  15.333  14.396  1.00  0.00     0.131 A 
HETATM   17  N3  UNL     1      11.537  14.642  14.943  1.00  0.00    -0.291 N 
HETATM   18  S3  UNL     1      12.065  14.160  13.462  1.00  0.00    -0.001 SA
BRANCH  17  19
HETATM   19  C8  UNL     1      12.005  14.431  16.281  1.00  0.00     0.045 A 
HETATM   20  C9  UNL     1      11.375  13.493  17.115  1.00  0.00     0.030 A 
HETATM   21  C10 UNL     1      11.832  13.290  18.421  1.00  0.00     0.002 A 
HETATM   22  C11 UNL     1      12.922  14.020  18.903  1.00  0.00     0.000 A 
HETATM   23  C12 UNL     1      13.555  14.955  18.080  1.00  0.00     0.002 A 
HETATM   24  C13 UNL     1      13.100  15.162  16.773  1.00  0.00     0.030 A 
ENDBRANCH  17  19
ENDBRANCH  12  15
ENDBRANCH   9  11
BRANCH  10  25
HETATM   25  C15 UNL     1       4.630  15.548   9.128  1.00  0.00     0.234 C 
BRANCH  25  26
HETATM   26  O4  UNL     1       4.620  15.179   7.772  1.00  0.00    -0.220 OA
BRANCH  26  27
HETATM   27  O5  UNL     1       5.059  16.235   7.099  1.00  0.00    -0.127 OA
BRANCH  27  28
HETATM   28  N4  UNL     1       6.280  15.895   6.591  1.00  0.00    -0.105 NA
HETATM   29  H13 UNL     1       6.213  15.648   5.571  1.00  0.00     0.177 HD
BRANCH  28  30
HETATM   30  N5  UNL     1       7.148  16.989   6.765  1.00  0.00    -0.245 NA
HETATM   31  H14 UNL     1       6.551  17.827   6.945  1.00  0.00     0.139 HD
HETATM   32  H15 UNL     1       7.716  16.831   7.630  1.00  0.00     0.139 HD
ENDBRANCH  28  30
ENDBRANCH  27  28
ENDBRANCH  26  27
ENDBRANCH  25  26
ENDBRANCH  10  25
TORSDOF 8
ENDMDL
MODEL 9
REMARK VINA RESULT:    -6.757      2.545      3.443
REMARK INTER + INTRA:         -10.218
REMARK INTER:                  -9.719
REMARK INTRA:                  -0.499
REMARK UNBOUND:                -0.499
REMARK  8 active torsions:
REMARK  status: ('A' for Active; 'I' for Inactive)
REMARK    1  A    between atoms: C4_9  and  N2_10 
REMARK       I    between atoms: N2_10  and  C5_11 
REMARK    2  A    between atoms: C5_11  and  C6_13 
REMARK    3  A    between atoms: N3_15  and  C8_16 
REMARK    4  A    between atoms: C14_23  and  C15_24 
REMARK    5  A    between atoms: C15_24  and  O4_25 
REMARK    6  A    between atoms: O4_25  and  O5_26 
REMARK    7  A    between atoms: O5_26  and  N4_27 
REMARK    8  A    between atoms: N4_27  and  N5_28 
ROOT
HETATM    1  S1  UNL     1      12.910  14.713  12.340  1.00  0.00    -0.062 SA
HETATM    2  S2  UNL     1      11.982  13.253  13.659  1.00  0.00    -0.079 SA
HETATM    3  C1  UNL     1      12.321  13.884  15.374  1.00  0.00     0.166 C 
HETATM    4  C2  UNL     1      11.346  14.993  15.565  1.00  0.00     0.223 C 
HETATM    5  O1  UNL     1      10.119  15.076  15.834  1.00  0.00    -0.278 OA
HETATM    6  N1  UNL     1      12.412  15.946  15.188  1.00  0.00    -0.177 NA
HETATM    7  C3  UNL     1      12.396  16.806  14.053  1.00  0.00     0.240 C 
HETATM    8  O2  UNL     1      12.750  18.009  14.165  1.00  0.00    -0.276 OA
HETATM    9  C4  UNL     1      11.961  16.244  12.722  1.00  0.00     0.245 C 
HETATM   10  C14 UNL     1      13.340  14.897  15.591  1.00  0.00     0.124 C 
ENDROOT
BRANCH   9  11
HETATM   11  N2  UNL     1      10.516  16.002  12.683  1.00  0.00    -0.334 N 
HETATM   12  C5  UNL     1       9.777  15.983  11.454  1.00  0.00     0.262 C 
HETATM   13  O3  UNL     1      10.344  16.254  10.362  1.00  0.00    -0.267 OA
HETATM   14  H3  UNL     1       9.983  15.921  13.576  1.00  0.00     0.164 HD
BRANCH  12  15
HETATM   15  C6  UNL     1       8.352  15.648  11.458  1.00  0.00     0.106 A 
HETATM   16  C7  UNL     1       7.256  15.918  10.580  1.00  0.00     0.131 A 
HETATM   17  N3  UNL     1       6.288  15.254  11.322  1.00  0.00    -0.291 N 
HETATM   18  S3  UNL     1       7.377  14.822  12.476  1.00  0.00    -0.001 SA
BRANCH  17  19
HETATM   19  C8  UNL     1       4.883  15.033  11.149  1.00  0.00     0.045 A 
HETATM   20  C9  UNL     1       4.424  13.979  10.343  1.00  0.00     0.030 A 
HETATM   21  C10 UNL     1       3.052  13.765  10.175  1.00  0.00     0.002 A 
HETATM   22  C11 UNL     1       2.130  14.601  10.811  1.00  0.00     0.000 A 
HETATM   23  C12 UNL     1       2.579  15.652  11.615  1.00  0.00     0.002 A 
HETATM   24  C13 UNL     1       3.951  15.869  11.785  1.00  0.00     0.030 A 
ENDBRANCH  17  19
ENDBRANCH  12  15
ENDBRANCH   9  11
BRANCH  10  25
HETATM   25  C15 UNL     1      14.683  14.805  14.831  1.00  0.00     0.234 C 
BRANCH  25  26
HETATM   26  O4  UNL     1      15.598  14.058  15.592  1.00  0.00    -0.220 OA
BRANCH  26  27
HETATM   27  O5  UNL     1      15.496  12.806  15.168  1.00  0.00    -0.127 OA
BRANCH  27  28
HETATM   28  N4  UNL     1      16.688  12.494  14.579  1.00  0.00    -0.105 NA
HETATM   29  H13 UNL     1      17.369  12.107  15.280  1.00  0.00     0.177 HD
BRANCH  28  30
HETATM   30  N5  UNL     1      16.444  11.544  13.570  1.00  0.00    -0.245 NA
HETATM   31  H14 UNL     1      17.160  10.791  13.680  1.00  0.00     0.139 HD
HETATM   32  H15 UNL     1      15.511  11.101  13.745  1.00  0.00     0.139 HD
ENDBRANCH  28  30
ENDBRANCH  27  28
ENDBRANCH  26  27
ENDBRANCH  25  26
ENDBRANCH  10  25
TORSDOF 8
ENDMDL
