MODEL 1
REMARK VINA RESULT:    -7.633      0.000      0.000
REMARK INTER + INTRA:          -8.740
REMARK INTER:                  -8.668
REMARK INTRA:                  -0.073
REMARK UNBOUND:                 0.231
REMARK  3 active torsions:
REMARK  status: ('A' for Active; 'I' for Inactive)
REMARK    1  A    between atoms: C6_9  and  N2_10 
REMARK       I    between atoms: N2_10  and  C7_11 
REMARK    2  A    between atoms: C7_11  and  C8_13 
REMARK    3  A    between atoms: N3_15  and  C10_16 
ROOT
HETATM    1  N2  UNL     1      11.328  13.555  12.635  1.00  0.00    -0.342 N 
HETATM    2  C7  UNL     1      12.349  12.549  12.241  1.00  0.00     0.258 C 
HETATM    3  O3  UNL     1      12.228  12.192  11.102  1.00  0.00    -0.267 OA
HETATM    4  H7  UNL     1      11.319  13.935  13.595  1.00  0.00     0.163 HD
ENDROOT
BRANCH   1   5
HETATM    5  C6  UNL     1      10.397  13.925  11.600  1.00  0.00     0.191 C 
HETATM    6  C5  UNL     1       8.993  13.455  12.098  1.00  0.00     0.251 C 
HETATM    7  N1  UNL     1       7.907  14.271  11.818  1.00  0.00    -0.280 N 
HETATM    8  O2  UNL     1       8.997  12.371  12.708  1.00  0.00    -0.271 OA
HETATM    9  C2  UNL     1       6.839  14.319  10.800  1.00  0.00     0.114 C 
HETATM   10  C4  UNL     1       7.371  15.518  12.231  1.00  0.00     0.242 C 
HETATM   11  C1  UNL     1       5.468  14.317  11.378  1.00  0.00     0.034 C 
HETATM   12  C3  UNL     1       7.413  15.802  10.715  1.00  0.00     0.163 C 
HETATM   13  S2  UNL     1       9.069  15.717  10.066  1.00  0.00    -0.145 SA
HETATM   14  C15 UNL     1      10.277  15.402  11.358  1.00  0.00     0.076 C 
HETATM   15  C16 UNL     1      11.605  16.005  10.967  1.00  0.00     0.024 C 
HETATM   16  O1  UNL     1       6.973  16.289  13.116  1.00  0.00    -0.272 OA
ENDBRANCH   1   5
BRANCH   2  17
HETATM   17  C8  UNL     1      13.245  12.268  13.389  1.00  0.00     0.092 A 
HETATM   18  C9  UNL     1      13.301  13.672  14.160  1.00  0.00     0.213 A 
HETATM   19  N3  UNL     1      14.098  13.418  15.177  1.00  0.00    -0.334 N 
HETATM   20  S1  UNL     1      14.238  11.959  14.658  1.00  0.00    -0.059 SA
BRANCH  19  21
HETATM   21  C10 UNL     1      14.621  14.197  16.301  1.00  0.00     0.092 C 
HETATM   22  C11 UNL     1      13.517  14.708  17.190  1.00  0.00     0.026 C 
HETATM   23  C12 UNL     1      14.002  16.049  17.730  1.00  0.00     0.002 C 
HETATM   24  C13 UNL     1      15.364  16.275  17.103  1.00  0.00     0.002 C 
HETATM   25  C14 UNL     1      15.234  15.497  15.810  1.00  0.00     0.026 C 
ENDBRANCH  19  21
ENDBRANCH   2  17
TORSDOF 3
ENDMDL
MODEL 2
REMARK VINA RESULT:    -7.427      2.730      7.742
REMARK INTER + INTRA:          -8.498
REMARK INTER:                  -8.547
REMARK INTRA:                   0.049
REMARK UNBOUND:                 0.231
REMARK  3 active torsions:
REMARK  status: ('A' for Active; 'I' for Inactive)
REMARK    1  A    between atoms: C6_9  and  N2_10 
REMARK       I    between atoms: N2_10  and  C7_11 
REMARK    2  A    between atoms: C7_11  and  C8_13 
REMARK    3  A    between atoms: N3_15  and  C10_16 
ROOT
HETATM    1  N2  UNL     1      11.211  14.156  14.353  1.00  0.00    -0.342 N 
HETATM    2  C7  UNL     1      10.830  14.141  12.916  1.00  0.00     0.258 C 
HETATM    3  O3  UNL     1      11.716  14.516  12.200  1.00  0.00    -0.267 OA
HETATM    4  H7  UNL     1      10.531  13.863  15.072  1.00  0.00     0.163 HD
ENDROOT
BRANCH   1   5
HETATM    5  C6  UNL     1      12.553  14.601  14.629  1.00  0.00     0.191 C 
HETATM    6  C5  UNL     1      12.410  15.826  15.588  1.00  0.00     0.251 C 
HETATM    7  N1  UNL     1      13.351  15.963  16.597  1.00  0.00    -0.280 N 
HETATM    8  O2  UNL     1      11.443  16.567  15.338  1.00  0.00    -0.271 OA
HETATM    9  C2  UNL     1      14.592  16.737  16.806  1.00  0.00     0.114 C 
HETATM   10  C4  UNL     1      13.701  15.346  17.826  1.00  0.00     0.242 C 
HETATM   11  C1  UNL     1      14.564  17.583  18.029  1.00  0.00     0.034 C 
HETATM   12  C3  UNL     1      15.086  15.263  17.150  1.00  0.00     0.163 C 
HETATM   13  S2  UNL     1      15.040  14.300  15.652  1.00  0.00    -0.145 SA
HETATM   14  C15 UNL     1      13.412  13.605  15.354  1.00  0.00     0.076 C 
HETATM   15  C16 UNL     1      13.544  12.321  14.572  1.00  0.00     0.024 C 
HETATM   16  O1  UNL     1      13.408  14.943  18.960  1.00  0.00    -0.272 OA
ENDBRANCH   1   5
BRANCH   2  17
HETATM   17  C8  UNL     1       9.436  13.655  12.772  1.00  0.00     0.092 A 
HETATM   18  C9  UNL     1       8.585  15.009  12.670  1.00  0.00     0.213 A 
HETATM   19  N3  UNL     1       7.349  14.572  12.544  1.00  0.00    -0.334 N 
HETATM   20  S1  UNL     1       7.894  13.117  12.615  1.00  0.00    -0.059 SA
BRANCH  19  21
HETATM   21  C10 UNL     1       6.037  15.206  12.405  1.00  0.00     0.092 C 
HETATM   22  C11 UNL     1       5.946  16.035  11.151  1.00  0.00     0.026 C 
HETATM   23  C12 UNL     1       5.021  17.201  11.486  1.00  0.00     0.002 C 
HETATM   24  C13 UNL     1       4.637  17.014  12.940  1.00  0.00     0.002 C 
HETATM   25  C14 UNL     1       5.839  16.264  13.476  1.00  0.00     0.026 C 
ENDBRANCH  19  21
ENDBRANCH   2  17
TORSDOF 3
ENDMDL
MODEL 3
REMARK VINA RESULT:    -7.328      2.564      3.632
REMARK INTER + INTRA:          -8.381
REMARK INTER:                  -8.307
REMARK INTRA:                  -0.074
REMARK UNBOUND:                 0.231
REMARK  3 active torsions:
REMARK  status: ('A' for Active; 'I' for Inactive)
REMARK    1  A    between atoms: C6_9  and  N2_10 
REMARK       I    between atoms: N2_10  and  C7_11 
REMARK    2  A    between atoms: C7_11  and  C8_13 
REMARK    3  A    between atoms: N3_15  and  C10_16 
ROOT
HETATM    1  N2  UNL     1      11.056  14.997  13.718  1.00  0.00    -0.342 N 
HETATM    2  C7  UNL     1      12.157  15.961  13.980  1.00  0.00     0.258 C 
HETATM    3  O3  UNL     1      11.807  17.102  13.865  1.00  0.00    -0.267 OA
HETATM    4  H7  UNL     1      11.232  13.981  13.777  1.00  0.00     0.163 HD
ENDROOT
BRANCH   1   5
HETATM    5  C6  UNL     1       9.785  15.589  13.388  1.00  0.00     0.191 C 
HETATM    6  C5  UNL     1       9.512  15.215  11.896  1.00  0.00     0.251 C 
HETATM    7  N1  UNL     1       8.206  14.917  11.539  1.00  0.00    -0.280 N 
HETATM    8  O2  UNL     1      10.522  15.223  11.169  1.00  0.00    -0.271 OA
HETATM    9  C2  UNL     1       7.077  15.636  10.914  1.00  0.00     0.114 C 
HETATM   10  C4  UNL     1       7.255  13.880  11.723  1.00  0.00     0.242 C 
HETATM   11  C1  UNL     1       6.550  14.966   9.696  1.00  0.00     0.034 C 
HETATM   12  C3  UNL     1       6.385  15.052  12.224  1.00  0.00     0.163 C 
HETATM   13  S2  UNL     1       7.104  15.861  13.638  1.00  0.00    -0.145 SA
HETATM   14  C15 UNL     1       8.619  15.056  14.169  1.00  0.00     0.076 C 
HETATM   15  C16 UNL     1       8.810  15.262  15.653  1.00  0.00     0.024 C 
HETATM   16  O1  UNL     1       6.922  12.689  11.656  1.00  0.00    -0.272 OA
ENDBRANCH   1   5
BRANCH   2  17
HETATM   17  C8  UNL     1      13.400  15.224  14.318  1.00  0.00     0.092 A 
HETATM   18  C9  UNL     1      13.043  13.710  13.928  1.00  0.00     0.213 A 
HETATM   19  N3  UNL     1      14.148  13.060  14.230  1.00  0.00    -0.334 N 
HETATM   20  S1  UNL     1      14.773  14.407  14.692  1.00  0.00    -0.059 SA
BRANCH  19  21
HETATM   21  C10 UNL     1      14.578  11.663  14.158  1.00  0.00     0.092 C 
HETATM   22  C11 UNL     1      14.528  10.991  15.505  1.00  0.00     0.026 C 
HETATM   23  C12 UNL     1      15.668   9.978  15.510  1.00  0.00     0.002 C 
HETATM   24  C13 UNL     1      16.355  10.128  14.167  1.00  0.00     0.002 C 
HETATM   25  C14 UNL     1      16.060  11.576  13.836  1.00  0.00     0.026 C 
ENDBRANCH  19  21
ENDBRANCH   2  17
TORSDOF 3
ENDMDL
MODEL 4
REMARK VINA RESULT:    -7.297      2.438      7.510
REMARK INTER + INTRA:          -8.345
REMARK INTER:                  -8.264
REMARK INTRA:                  -0.081
REMARK UNBOUND:                 0.231
REMARK  3 active torsions:
REMARK  status: ('A' for Active; 'I' for Inactive)
REMARK    1  A    between atoms: C6_9  and  N2_10 
REMARK       I    between atoms: N2_10  and  C7_11 
REMARK    2  A    between atoms: C7_11  and  C8_13 
REMARK    3  A    between atoms: N3_15  and  C10_16 
ROOT
HETATM    1  N2  UNL     1      12.433  15.578  13.072  1.00  0.00    -0.342 N 
HETATM    2  C7  UNL     1      12.856  15.946  11.694  1.00  0.00     0.258 C 
HETATM    3  O3  UNL     1      14.040  15.850  11.535  1.00  0.00    -0.267 OA
HETATM    4  H7  UNL     1      11.437  15.628  13.338  1.00  0.00     0.163 HD
ENDROOT
BRANCH   1   5
HETATM    5  C6  UNL     1      13.497  15.171  13.953  1.00  0.00     0.191 C 
HETATM    6  C5  UNL     1      13.443  16.148  15.170  1.00  0.00     0.251 C 
HETATM    7  N1  UNL     1      13.707  15.623  16.426  1.00  0.00    -0.280 N 
HETATM    8  O2  UNL     1      13.162  17.324  14.877  1.00  0.00    -0.271 OA
HETATM    9  C2  UNL     1      14.870  15.551  17.333  1.00  0.00     0.114 C 
HETATM   10  C4  UNL     1      13.090  14.778  17.385  1.00  0.00     0.242 C 
HETATM   11  C1  UNL     1      14.607  16.122  18.682  1.00  0.00     0.034 C 
HETATM   12  C3  UNL     1      14.430  14.022  17.273  1.00  0.00     0.163 C 
HETATM   13  S2  UNL     1      14.724  13.427  15.620  1.00  0.00    -0.145 SA
HETATM   14  C15 UNL     1      13.348  13.790  14.525  1.00  0.00     0.076 C 
HETATM   15  C16 UNL     1      13.280  12.748  13.434  1.00  0.00     0.024 C 
HETATM   16  O1  UNL     1      12.130  14.477  18.108  1.00  0.00    -0.272 OA
ENDBRANCH   1   5
BRANCH   2  17
HETATM   17  C8  UNL     1      11.669  16.333  10.892  1.00  0.00     0.092 A 
HETATM   18  C9  UNL     1      10.530  15.337  11.423  1.00  0.00     0.213 A 
HETATM   19  N3  UNL     1       9.479  15.684  10.708  1.00  0.00    -0.334 N 
HETATM   20  S1  UNL     1      10.357  16.759  10.005  1.00  0.00    -0.059 SA
BRANCH  19  21
HETATM   21  C10 UNL     1       8.091  15.230  10.624  1.00  0.00     0.092 C 
HETATM   22  C11 UNL     1       7.350  15.451  11.916  1.00  0.00     0.026 C 
HETATM   23  C12 UNL     1       6.345  14.310  12.024  1.00  0.00     0.002 C 
HETATM   24  C13 UNL     1       6.568  13.451  10.795  1.00  0.00     0.002 C 
HETATM   25  C14 UNL     1       8.030  13.718  10.501  1.00  0.00     0.026 C 
ENDBRANCH  19  21
ENDBRANCH   2  17
TORSDOF 3
ENDMDL
MODEL 5
REMARK VINA RESULT:    -7.221      2.964      8.122
REMARK INTER + INTRA:          -8.256
REMARK INTER:                  -8.488
REMARK INTRA:                   0.231
REMARK UNBOUND:                 0.231
REMARK  3 active torsions:
REMARK  status: ('A' for Active; 'I' for Inactive)
REMARK    1  A    between atoms: C6_9  and  N2_10 
REMARK       I    between atoms: N2_10  and  C7_11 
REMARK    2  A    between atoms: C7_11  and  C8_13 
REMARK    3  A    between atoms: N3_15  and  C10_16 
ROOT
HETATM    1  N2  UNL     1       8.439  14.614  12.722  1.00  0.00    -0.342 N 
HETATM    2  C7  UNL     1       7.291  13.777  12.281  1.00  0.00     0.258 C 
HETATM    3  O3  UNL     1       7.344  12.659  12.711  1.00  0.00    -0.267 OA
HETATM    4  H7  UNL     1       8.513  15.596  12.411  1.00  0.00     0.163 HD
ENDROOT
BRANCH   1   5
HETATM    5  C6  UNL     1       9.389  13.952  13.577  1.00  0.00     0.191 C 
HETATM    6  C5  UNL     1      10.633  13.648  12.682  1.00  0.00     0.251 C 
HETATM    7  N1  UNL     1      11.886  13.777  13.261  1.00  0.00    -0.280 N 
HETATM    8  O2  UNL     1      10.360  13.314  11.515  1.00  0.00    -0.271 OA
HETATM    9  C2  UNL     1      12.883  12.872  13.869  1.00  0.00     0.114 C 
HETATM   10  C4  UNL     1      12.759  14.803  13.708  1.00  0.00     0.242 C 
HETATM   11  C1  UNL     1      14.225  12.955  13.232  1.00  0.00     0.034 C 
HETATM   12  C3  UNL     1      12.730  13.973  15.009  1.00  0.00     0.163 C 
HETATM   13  S2  UNL     1      11.086  13.846  15.683  1.00  0.00    -0.145 SA
HETATM   14  C15 UNL     1       9.895  14.784  14.721  1.00  0.00     0.076 C 
HETATM   15  C16 UNL     1       8.765  15.237  15.614  1.00  0.00     0.024 C 
HETATM   16  O1  UNL     1      13.389  15.852  13.516  1.00  0.00    -0.272 OA
ENDBRANCH   1   5
BRANCH   2  17
HETATM   17  C8  UNL     1       6.387  14.579  11.420  1.00  0.00     0.092 A 
HETATM   18  C9  UNL     1       5.348  15.207  12.466  1.00  0.00     0.213 A 
HETATM   19  N3  UNL     1       4.548  15.917  11.698  1.00  0.00    -0.334 N 
HETATM   20  S1  UNL     1       5.387  15.465  10.468  1.00  0.00    -0.059 SA
BRANCH  19  21
HETATM   21  C10 UNL     1       3.373  16.759  11.926  1.00  0.00     0.092 C 
HETATM   22  C11 UNL     1       3.738  18.064  12.584  1.00  0.00     0.026 C 
HETATM   23  C12 UNL     1       2.553  18.431  13.470  1.00  0.00     0.002 C 
HETATM   24  C13 UNL     1       1.556  17.300  13.312  1.00  0.00     0.002 C 
HETATM   25  C14 UNL     1       2.469  16.139  12.977  1.00  0.00     0.026 C 
ENDBRANCH  19  21
ENDBRANCH   2  17
TORSDOF 3
ENDMDL
MODEL 6
REMARK VINA RESULT:    -7.211      2.258      7.367
REMARK INTER + INTRA:          -8.245
REMARK INTER:                  -8.329
REMARK INTRA:                   0.084
REMARK UNBOUND:                 0.231
REMARK  3 active torsions:
REMARK  status: ('A' for Active; 'I' for Inactive)
REMARK    1  A    between atoms: C6_9  and  N2_10 
REMARK       I    between atoms: N2_10  and  C7_11 
REMARK    2  A    between atoms: C7_11  and  C8_13 
REMARK    3  A    between atoms: N3_15  and  C10_16 
ROOT
HETATM    1  N2  UNL     1      11.101  15.005  12.169  1.00  0.00    -0.342 N 
HETATM    2  C7  UNL     1      11.239  15.640  10.831  1.00  0.00     0.258 C 
HETATM    3  O3  UNL     1      12.349  15.544  10.388  1.00  0.00    -0.267 OA
HETATM    4  H7  UNL     1      10.194  15.028  12.661  1.00  0.00     0.163 HD
ENDROOT
BRANCH   1   5
HETATM    5  C6  UNL     1      12.297  14.392  12.685  1.00  0.00     0.191 C 
HETATM    6  C5  UNL     1      12.556  15.058  14.074  1.00  0.00     0.251 C 
HETATM    7  N1  UNL     1      13.042  14.250  15.091  1.00  0.00    -0.280 N 
HETATM    8  O2  UNL     1      12.292  16.273  14.121  1.00  0.00    -0.271 OA
HETATM    9  C2  UNL     1      14.361  13.955  15.686  1.00  0.00     0.114 C 
HETATM   10  C4  UNL     1      12.586  13.211  15.943  1.00  0.00     0.242 C 
HETATM   11  C1  UNL     1      14.418  14.197  17.152  1.00  0.00     0.034 C 
HETATM   12  C3  UNL     1      13.826  12.488  15.376  1.00  0.00     0.163 C 
HETATM   13  S2  UNL     1      13.735  12.294  13.608  1.00  0.00    -0.145 SA
HETATM   14  C15 UNL     1      12.187  12.917  12.947  1.00  0.00     0.076 C 
HETATM   15  C16 UNL     1      11.831  12.160  11.689  1.00  0.00     0.024 C 
HETATM   16  O1  UNL     1      11.781  12.758  16.768  1.00  0.00    -0.272 OA
ENDBRANCH   1   5
BRANCH   2  17
HETATM   17  C8  UNL     1       9.939  16.221  10.415  1.00  0.00     0.092 A 
HETATM   18  C9  UNL     1       8.908  15.608  11.479  1.00  0.00     0.213 A 
HETATM   19  N3  UNL     1       7.756  16.126  11.105  1.00  0.00    -0.334 N 
HETATM   20  S1  UNL     1       8.500  16.861   9.954  1.00  0.00    -0.059 SA
BRANCH  19  21
HETATM   21  C10 UNL     1       6.376  16.029  11.582  1.00  0.00     0.092 C 
HETATM   22  C11 UNL     1       5.507  17.118  11.010  1.00  0.00     0.026 C 
HETATM   23  C12 UNL     1       4.477  17.440  12.086  1.00  0.00     0.002 C 
HETATM   24  C13 UNL     1       4.812  16.539  13.258  1.00  0.00     0.002 C 
HETATM   25  C14 UNL     1       6.301  16.337  13.067  1.00  0.00     0.026 C 
ENDBRANCH  19  21
ENDBRANCH   2  17
TORSDOF 3
ENDMDL
MODEL 7
REMARK VINA RESULT:    -7.209      2.620      3.958
REMARK INTER + INTRA:          -8.242
REMARK INTER:                  -8.373
REMARK INTRA:                   0.131
REMARK UNBOUND:                 0.231
REMARK  3 active torsions:
REMARK  status: ('A' for Active; 'I' for Inactive)
REMARK    1  A    between atoms: C6_9  and  N2_10 
REMARK       I    between atoms: N2_10  and  C7_11 
REMARK    2  A    between atoms: C7_11  and  C8_13 
REMARK    3  A    between atoms: N3_15  and  C10_16 
ROOT
HETATM    1  N2  UNL     1       8.381  15.218  12.799  1.00  0.00    -0.342 N 
HETATM    2  C7  UNL     1       9.148  14.159  13.507  1.00  0.00     0.258 C 
HETATM    3  O3  UNL     1       8.521  13.145  13.637  1.00  0.00    -0.267 OA
HETATM    4  H7  UNL     1       8.808  16.143  12.632  1.00  0.00     0.163 HD
ENDROOT
BRANCH   1   5
HETATM    5  C6  UNL     1       7.050  14.846  12.393  1.00  0.00     0.191 C 
HETATM    6  C5  UNL     1       6.097  15.915  13.017  1.00  0.00     0.251 C 
HETATM    7  N1  UNL     1       5.010  16.325  12.260  1.00  0.00    -0.280 N 
HETATM    8  O2  UNL     1       6.423  16.295  14.156  1.00  0.00    -0.271 OA
HETATM    9  C2  UNL     1       3.573  15.995  12.185  1.00  0.00     0.114 C 
HETATM   10  C4  UNL     1       4.742  17.109  11.107  1.00  0.00     0.242 C 
HETATM   11  C1  UNL     1       2.684  17.176  12.351  1.00  0.00     0.034 C 
HETATM   12  C3  UNL     1       4.008  15.827  10.663  1.00  0.00     0.163 C 
HETATM   13  S2  UNL     1       5.109  14.431  10.554  1.00  0.00    -0.145 SA
HETATM   14  C15 UNL     1       6.807  14.890  10.911  1.00  0.00     0.076 C 
HETATM   15  C16 UNL     1       7.748  13.969  10.172  1.00  0.00     0.024 C 
HETATM   16  O1  UNL     1       4.838  18.164  10.467  1.00  0.00    -0.272 OA
ENDBRANCH   1   5
BRANCH   2  17
HETATM   17  C8  UNL     1      10.497  14.666  13.857  1.00  0.00     0.092 A 
HETATM   18  C9  UNL     1      11.375  13.329  13.959  1.00  0.00     0.213 A 
HETATM   19  N3  UNL     1      12.571  13.784  14.270  1.00  0.00    -0.334 N 
HETATM   20  S1  UNL     1      11.990  15.226  14.245  1.00  0.00    -0.059 SA
BRANCH  19  21
HETATM   21  C10 UNL     1      13.875  13.172  14.531  1.00  0.00     0.092 C 
HETATM   22  C11 UNL     1      14.459  12.549  13.291  1.00  0.00     0.026 C 
HETATM   23  C12 UNL     1      15.258  11.340  13.766  1.00  0.00     0.002 C 
HETATM   24  C13 UNL     1      15.076  11.295  15.270  1.00  0.00     0.002 C 
HETATM   25  C14 UNL     1      13.724  11.958  15.431  1.00  0.00     0.026 C 
ENDBRANCH  19  21
ENDBRANCH   2  17
TORSDOF 3
ENDMDL
MODEL 8
REMARK VINA RESULT:    -7.180      3.240      8.049
REMARK INTER + INTRA:          -8.208
REMARK INTER:                  -8.132
REMARK INTRA:                  -0.076
REMARK UNBOUND:                 0.231
REMARK  3 active torsions:
REMARK  status: ('A' for Active; 'I' for Inactive)
REMARK    1  A    between atoms: C6_9  and  N2_10 
REMARK       I    between atoms: N2_10  and  C7_11 
REMARK    2  A    between atoms: C7_11  and  C8_13 
REMARK    3  A    between atoms: N3_15  and  C10_16 
ROOT
HETATM    1  N2  UNL     1       8.289  15.194  11.127  1.00  0.00    -0.342 N 
HETATM    2  C7  UNL     1       7.225  14.646  10.244  1.00  0.00     0.258 C 
HETATM    3  O3  UNL     1       7.567  13.646   9.677  1.00  0.00    -0.267 OA
HETATM    4  H7  UNL     1       8.120  16.060  11.665  1.00  0.00     0.163 HD
ENDROOT
BRANCH   1   5
HETATM    5  C6  UNL     1       9.515  14.440  11.154  1.00  0.00     0.191 C 
HETATM    6  C5  UNL     1      10.644  15.442  10.753  1.00  0.00     0.251 C 
HETATM    7  N1  UNL     1      11.864  15.326  11.401  1.00  0.00    -0.280 N 
HETATM    8  O2  UNL     1      10.320  16.260   9.873  1.00  0.00    -0.271 OA
HETATM    9  C2  UNL     1      13.173  14.706  11.114  1.00  0.00     0.114 C 
HETATM   10  C4  UNL     1      12.426  15.577  12.680  1.00  0.00     0.242 C 
HETATM   11  C1  UNL     1      14.311  15.661  11.187  1.00  0.00     0.034 C 
HETATM   12  C3  UNL     1      12.853  14.100  12.552  1.00  0.00     0.163 C 
HETATM   13  S2  UNL     1      11.452  13.012  12.393  1.00  0.00    -0.145 SA
HETATM   14  C15 UNL     1       9.897  13.904  12.504  1.00  0.00     0.076 C 
HETATM   15  C16 UNL     1       8.828  12.993  13.056  1.00  0.00     0.024 C 
HETATM   16  O1  UNL     1      12.658  16.332  13.634  1.00  0.00    -0.272 OA
ENDBRANCH   1   5
BRANCH   2  17
HETATM   17  C8  UNL     1       6.019  15.507  10.319  1.00  0.00     0.092 A 
HETATM   18  C9  UNL     1       5.739  15.609  11.894  1.00  0.00     0.213 A 
HETATM   19  N3  UNL     1       4.668  16.372  11.955  1.00  0.00    -0.334 N 
HETATM   20  S1  UNL     1       4.684  16.458  10.402  1.00  0.00    -0.059 SA
BRANCH  19  21
HETATM   21  C10 UNL     1       3.833  16.898  13.036  1.00  0.00     0.092 C 
HETATM   22  C11 UNL     1       2.530  16.151  13.151  1.00  0.00     0.026 C 
HETATM   23  C12 UNL     1       1.502  17.173  13.622  1.00  0.00     0.002 C 
HETATM   24  C13 UNL     1       2.250  18.487  13.731  1.00  0.00     0.002 C 
HETATM   25  C14 UNL     1       3.346  18.296  12.702  1.00  0.00     0.026 C 
ENDBRANCH  19  21
ENDBRANCH   2  17
TORSDOF 3
ENDMDL
MODEL 9
REMARK VINA RESULT:    -7.123      2.327      8.359
REMARK INTER + INTRA:          -8.141
REMARK INTER:                  -8.255
REMARK INTRA:                   0.114
REMARK UNBOUND:                 0.231
REMARK  3 active torsions:
REMARK  status: ('A' for Active; 'I' for Inactive)
REMARK    1  A    between atoms: C6_9  and  N2_10 
REMARK       I    between atoms: N2_10  and  C7_11 
REMARK    2  A    between atoms: C7_11  and  C8_13 
REMARK    3  A    between atoms: N3_15  and  C10_16 
ROOT
HETATM    1  N2  UNL     1       9.796  14.187  12.606  1.00  0.00    -0.342 N 
HETATM    2  C7  UNL     1       8.466  13.583  12.325  1.00  0.00     0.258 C 
HETATM    3  O3  UNL     1       8.232  12.639  13.026  1.00  0.00    -0.267 OA
HETATM    4  H7  UNL     1      10.120  15.003  12.062  1.00  0.00     0.163 HD
ENDROOT
BRANCH   1   5
HETATM    5  C6  UNL     1      10.552  13.550  13.654  1.00  0.00     0.191 C 
HETATM    6  C5  UNL     1      11.867  13.038  12.984  1.00  0.00     0.251 C 
HETATM    7  N1  UNL     1      13.038  13.125  13.721  1.00  0.00    -0.280 N 
HETATM    8  O2  UNL     1      11.720  12.594  11.831  1.00  0.00    -0.271 OA
HETATM    9  C2  UNL     1      13.847  12.215  14.557  1.00  0.00     0.114 C 
HETATM   10  C4  UNL     1      13.943  14.118  14.180  1.00  0.00     0.242 C 
HETATM   11  C1  UNL     1      15.263  12.107  14.116  1.00  0.00     0.034 C 
HETATM   12  C3  UNL     1      13.655  13.451  15.542  1.00  0.00     0.163 C 
HETATM   13  S2  UNL     1      11.932  13.546  15.982  1.00  0.00    -0.145 SA
HETATM   14  C15 UNL     1      10.982  14.464  14.765  1.00  0.00     0.076 C 
HETATM   15  C16 UNL     1       9.795  15.114  15.434  1.00  0.00     0.024 C 
HETATM   16  O1  UNL     1      14.696  15.079  13.973  1.00  0.00    -0.272 OA
ENDBRANCH   1   5
BRANCH   2  17
HETATM   17  C8  UNL     1       7.793  14.337  11.239  1.00  0.00     0.092 A 
HETATM   18  C9  UNL     1       6.236  14.127  11.560  1.00  0.00     0.213 A 
HETATM   19  N3  UNL     1       5.643  14.797  10.593  1.00  0.00    -0.334 N 
HETATM   20  S1  UNL     1       7.048  15.170  10.038  1.00  0.00    -0.059 SA
BRANCH  19  21
HETATM   21  C10 UNL     1       4.253  15.059  10.219  1.00  0.00     0.092 C 
HETATM   22  C11 UNL     1       3.481  15.698  11.343  1.00  0.00     0.026 C 
HETATM   23  C12 UNL     1       2.050  15.188  11.212  1.00  0.00     0.002 C 
HETATM   24  C13 UNL     1       2.059  14.242  10.028  1.00  0.00     0.002 C 
HETATM   25  C14 UNL     1       3.494  13.755  10.041  1.00  0.00     0.026 C 
ENDBRANCH  19  21
ENDBRANCH   2  17
TORSDOF 3
ENDMDL
