MODEL 1
REMARK VINA RESULT:    -6.792      0.000      0.000
REMARK INTER + INTRA:          -7.936
REMARK INTER:                  -7.784
REMARK INTRA:                  -0.153
REMARK UNBOUND:                 0.046
REMARK  3 active torsions:
REMARK  status: ('A' for Active; 'I' for Inactive)
REMARK    1  A    between atoms: C6_9  and  N2_10 
REMARK       I    between atoms: N2_10  and  C7_11 
REMARK    2  A    between atoms: C7_11  and  C8_13 
REMARK    3  A    between atoms: N3_15  and  C10_16 
ROOT
HETATM    1  N2  UNL     1      15.628   1.987   9.554  1.00  0.00    -0.342 N 
HETATM    2  C7  UNL     1      14.900   0.958   8.765  1.00  0.00     0.258 C 
HETATM    3  O3  UNL     1      15.544   0.545   7.841  1.00  0.00    -0.267 OA
HETATM    4  H7  UNL     1      15.177   2.427  10.372  1.00  0.00     0.163 HD
ENDROOT
BRANCH   1   5
HETATM    5  C6  UNL     1      16.955   2.296   9.086  1.00  0.00     0.191 C 
HETATM    6  C5  UNL     1      16.909   3.787   8.621  1.00  0.00     0.251 C 
HETATM    7  N1  UNL     1      18.023   4.572   8.875  1.00  0.00    -0.280 N 
HETATM    8  O2  UNL     1      15.851   4.120   8.058  1.00  0.00    -0.271 OA
HETATM    9  C2  UNL     1      19.208   5.025   8.120  1.00  0.00     0.114 C 
HETATM   10  C4  UNL     1      18.671   5.187   9.978  1.00  0.00     0.242 C 
HETATM   11  C1  UNL     1      19.362   6.504   8.087  1.00  0.00     0.034 C 
HETATM   12  C3  UNL     1      19.888   4.416   9.425  1.00  0.00     0.163 C 
HETATM   13  S2  UNL     1      19.616   2.656   9.420  1.00  0.00    -0.145 SA
HETATM   14  C15 UNL     1      18.027   2.223  10.135  1.00  0.00     0.076 C 
HETATM   15  C16 UNL     1      18.104   0.844  10.746  1.00  0.00     0.024 C 
HETATM   16  O1  UNL     1      18.654   5.924  10.973  1.00  0.00    -0.272 OA
ENDBRANCH   1   5
BRANCH   2  17
HETATM   17  C8  UNL     1      13.560   0.727   9.358  1.00  0.00     0.092 A 
HETATM   18  C9  UNL     1      13.222   2.132  10.053  1.00  0.00     0.213 A 
HETATM   19  N3  UNL     1      12.032   1.922  10.578  1.00  0.00    -0.334 N 
HETATM   20  S1  UNL     1      12.078   0.473  10.015  1.00  0.00    -0.059 SA
BRANCH  19  21
HETATM   21  C10 UNL     1      11.091   2.724  11.360  1.00  0.00     0.092 C 
HETATM   22  C11 UNL     1      10.694   2.034  12.639  1.00  0.00     0.026 C 
HETATM   23  C12 UNL     1       9.253   2.454  12.910  1.00  0.00     0.002 C 
HETATM   24  C13 UNL     1       8.862   3.351  11.753  1.00  0.00     0.002 C 
HETATM   25  C14 UNL     1       9.754   2.824  10.648  1.00  0.00     0.026 C 
ENDBRANCH  19  21
ENDBRANCH   2  17
TORSDOF 3
ENDMDL
MODEL 2
REMARK VINA RESULT:    -6.425      1.209      1.769
REMARK INTER + INTRA:          -7.506
REMARK INTER:                  -7.657
REMARK INTRA:                   0.151
REMARK UNBOUND:                 0.046
REMARK  3 active torsions:
REMARK  status: ('A' for Active; 'I' for Inactive)
REMARK    1  A    between atoms: C6_9  and  N2_10 
REMARK       I    between atoms: N2_10  and  C7_11 
REMARK    2  A    between atoms: C7_11  and  C8_13 
REMARK    3  A    between atoms: N3_15  and  C10_16 
ROOT
HETATM    1  N2  UNL     1      15.207   2.344   9.408  1.00  0.00    -0.342 N 
HETATM    2  C7  UNL     1      14.613   1.131   8.785  1.00  0.00     0.258 C 
HETATM    3  O3  UNL     1      15.371   0.578   8.039  1.00  0.00    -0.267 OA
HETATM    4  H7  UNL     1      14.651   2.914  10.065  1.00  0.00     0.163 HD
ENDROOT
BRANCH   1   5
HETATM    5  C6  UNL     1      16.565   2.631   9.021  1.00  0.00     0.191 C 
HETATM    6  C5  UNL     1      16.563   4.110   8.517  1.00  0.00     0.251 C 
HETATM    7  N1  UNL     1      17.664   4.893   8.824  1.00  0.00    -0.280 N 
HETATM    8  O2  UNL     1      15.547   4.435   7.876  1.00  0.00    -0.271 OA
HETATM    9  C2  UNL     1      18.901   5.317   8.138  1.00  0.00     0.114 C 
HETATM   10  C4  UNL     1      18.243   5.532   9.952  1.00  0.00     0.242 C 
HETATM   11  C1  UNL     1      19.070   6.794   8.077  1.00  0.00     0.034 C 
HETATM   12  C3  UNL     1      19.487   4.738   9.500  1.00  0.00     0.163 C 
HETATM   13  S2  UNL     1      19.201   2.980   9.522  1.00  0.00    -0.145 SA
HETATM   14  C15 UNL     1      17.564   2.577  10.141  1.00  0.00     0.076 C 
HETATM   15  C16 UNL     1      17.589   1.215  10.791  1.00  0.00     0.024 C 
HETATM   16  O1  UNL     1      18.167   6.294  10.925  1.00  0.00    -0.272 OA
ENDBRANCH   1   5
BRANCH   2  17
HETATM   17  C8  UNL     1      13.225   0.946   9.275  1.00  0.00     0.092 A 
HETATM   18  C9  UNL     1      13.425   0.661  10.840  1.00  0.00     0.213 A 
HETATM   19  N3  UNL     1      12.191   0.497  11.270  1.00  0.00    -0.334 N 
HETATM   20  S1  UNL     1      11.690   0.739   9.818  1.00  0.00    -0.059 SA
BRANCH  19  21
HETATM   21  C10 UNL     1      11.579   0.204  12.567  1.00  0.00     0.092 C 
HETATM   22  C11 UNL     1      10.603   1.275  12.980  1.00  0.00     0.026 C 
HETATM   23  C12 UNL     1      10.679   1.346  14.501  1.00  0.00     0.002 C 
HETATM   24  C13 UNL     1      11.726   0.327  14.907  1.00  0.00     0.002 C 
HETATM   25  C14 UNL     1      12.610   0.296  13.677  1.00  0.00     0.026 C 
ENDBRANCH  19  21
ENDBRANCH   2  17
TORSDOF 3
ENDMDL
MODEL 3
REMARK VINA RESULT:    -6.324      2.369      3.258
REMARK INTER + INTRA:          -7.387
REMARK INTER:                  -7.607
REMARK INTRA:                   0.220
REMARK UNBOUND:                 0.046
REMARK  3 active torsions:
REMARK  status: ('A' for Active; 'I' for Inactive)
REMARK    1  A    between atoms: C6_9  and  N2_10 
REMARK       I    between atoms: N2_10  and  C7_11 
REMARK    2  A    between atoms: C7_11  and  C8_13 
REMARK    3  A    between atoms: N3_15  and  C10_16 
ROOT
HETATM    1  N2  UNL     1      15.123   2.284   8.906  1.00  0.00    -0.342 N 
HETATM    2  C7  UNL     1      14.937   1.441  10.117  1.00  0.00     0.258 C 
HETATM    3  O3  UNL     1      15.964   1.244  10.703  1.00  0.00    -0.267 OA
HETATM    4  H7  UNL     1      14.314   2.519   8.309  1.00  0.00     0.163 HD
ENDROOT
BRANCH   1   5
HETATM    5  C6  UNL     1      16.475   2.715   8.658  1.00  0.00     0.191 C 
HETATM    6  C5  UNL     1      16.858   2.139   7.258  1.00  0.00     0.251 C 
HETATM    7  N1  UNL     1      17.639   2.932   6.431  1.00  0.00    -0.280 N 
HETATM    8  O2  UNL     1      16.412   1.001   7.027  1.00  0.00    -0.271 OA
HETATM    9  C2  UNL     1      19.072   3.035   6.087  1.00  0.00     0.114 C 
HETATM   10  C4  UNL     1      17.515   4.108   5.646  1.00  0.00     0.242 C 
HETATM   11  C1  UNL     1      19.342   2.917   4.630  1.00  0.00     0.034 C 
HETATM   12  C3  UNL     1      18.739   4.542   6.480  1.00  0.00     0.163 C 
HETATM   13  S2  UNL     1      18.375   4.592   8.222  1.00  0.00    -0.145 SA
HETATM   14  C15 UNL     1      16.654   4.203   8.557  1.00  0.00     0.076 C 
HETATM   15  C16 UNL     1      16.215   4.897   9.824  1.00  0.00     0.024 C 
HETATM   16  O1  UNL     1      16.950   4.769   4.764  1.00  0.00    -0.272 OA
ENDBRANCH   1   5
BRANCH   2  17
HETATM   17  C8  UNL     1      13.505   1.079  10.260  1.00  0.00     0.092 A 
HETATM   18  C9  UNL     1      13.312   0.976  11.848  1.00  0.00     0.213 A 
HETATM   19  N3  UNL     1      12.041   0.654  11.970  1.00  0.00    -0.334 N 
HETATM   20  S1  UNL     1      11.923   0.677  10.420  1.00  0.00    -0.059 SA
BRANCH  19  21
HETATM   21  C10 UNL     1      11.146   0.386  13.097  1.00  0.00     0.092 C 
HETATM   22  C11 UNL     1      10.230   1.550  13.373  1.00  0.00     0.026 C 
HETATM   23  C12 UNL     1       9.998   1.551  14.880  1.00  0.00     0.002 C 
HETATM   24  C13 UNL     1      10.820   0.398  15.422  1.00  0.00     0.002 C 
HETATM   25  C14 UNL     1      11.929   0.309  14.395  1.00  0.00     0.026 C 
ENDBRANCH  19  21
ENDBRANCH   2  17
TORSDOF 3
ENDMDL
MODEL 4
REMARK VINA RESULT:    -6.131      2.386      3.166
REMARK INTER + INTRA:          -7.160
REMARK INTER:                  -7.086
REMARK INTRA:                  -0.074
REMARK UNBOUND:                 0.046
REMARK  3 active torsions:
REMARK  status: ('A' for Active; 'I' for Inactive)
REMARK    1  A    between atoms: C6_9  and  N2_10 
REMARK       I    between atoms: N2_10  and  C7_11 
REMARK    2  A    between atoms: C7_11  and  C8_13 
REMARK    3  A    between atoms: N3_15  and  C10_16 
ROOT
HETATM    1  N2  UNL     1      15.500   1.966   8.051  1.00  0.00    -0.342 N 
HETATM    2  C7  UNL     1      15.349   1.018   9.187  1.00  0.00     0.258 C 
HETATM    3  O3  UNL     1      16.404   0.633   9.608  1.00  0.00    -0.267 OA
HETATM    4  H7  UNL     1      14.664   2.364   7.594  1.00  0.00     0.163 HD
ENDROOT
BRANCH   1   5
HETATM    5  C6  UNL     1      16.858   2.257   7.669  1.00  0.00     0.191 C 
HETATM    6  C5  UNL     1      16.993   1.796   6.182  1.00  0.00     0.251 C 
HETATM    7  N1  UNL     1      17.767   2.576   5.337  1.00  0.00    -0.280 N 
HETATM    8  O2  UNL     1      16.376   0.751   5.907  1.00  0.00    -0.271 OA
HETATM    9  C2  UNL     1      19.150   2.544   4.820  1.00  0.00     0.114 C 
HETATM   10  C4  UNL     1      17.708   3.837   4.689  1.00  0.00     0.242 C 
HETATM   11  C1  UNL     1      19.228   2.556   3.334  1.00  0.00     0.034 C 
HETATM   12  C3  UNL     1      19.068   4.028   5.392  1.00  0.00     0.163 C 
HETATM   13  S2  UNL     1      18.924   3.930   7.164  1.00  0.00    -0.145 SA
HETATM   14  C15 UNL     1      17.219   3.715   7.685  1.00  0.00     0.076 C 
HETATM   15  C16 UNL     1      17.028   4.313   9.057  1.00  0.00     0.024 C 
HETATM   16  O1  UNL     1      17.135   4.654   3.956  1.00  0.00    -0.272 OA
ENDBRANCH   1   5
BRANCH   2  17
HETATM   17  C8  UNL     1      13.910   0.816   9.483  1.00  0.00     0.092 A 
HETATM   18  C9  UNL     1      13.500   2.169  10.240  1.00  0.00     0.213 A 
HETATM   19  N3  UNL     1      12.222   1.984  10.502  1.00  0.00    -0.334 N 
HETATM   20  S1  UNL     1      12.318   0.593   9.813  1.00  0.00    -0.059 SA
BRANCH  19  21
HETATM   21  C10 UNL     1      11.179   2.768  11.165  1.00  0.00     0.092 C 
HETATM   22  C11 UNL     1      10.679   2.091  12.415  1.00  0.00     0.026 C 
HETATM   23  C12 UNL     1       9.205   2.462  12.530  1.00  0.00     0.002 C 
HETATM   24  C13 UNL     1       8.902   3.319  11.318  1.00  0.00     0.002 C 
HETATM   25  C14 UNL     1       9.918   2.802  10.320  1.00  0.00     0.026 C 
ENDBRANCH  19  21
ENDBRANCH   2  17
TORSDOF 3
ENDMDL
MODEL 5
REMARK VINA RESULT:    -5.860     12.047     13.621
REMARK INTER + INTRA:          -6.841
REMARK INTER:                  -6.745
REMARK INTRA:                  -0.096
REMARK UNBOUND:                 0.046
REMARK  3 active torsions:
REMARK  status: ('A' for Active; 'I' for Inactive)
REMARK    1  A    between atoms: C6_9  and  N2_10 
REMARK       I    between atoms: N2_10  and  C7_11 
REMARK    2  A    between atoms: C7_11  and  C8_13 
REMARK    3  A    between atoms: N3_15  and  C10_16 
ROOT
HETATM    1  N2  UNL     1      11.881  15.026  11.940  1.00  0.00    -0.342 N 
HETATM    2  C7  UNL     1      12.773  16.193  12.174  1.00  0.00     0.258 C 
HETATM    3  O3  UNL     1      13.072  16.755  11.158  1.00  0.00    -0.267 OA
HETATM    4  H7  UNL     1      11.559  14.453  12.736  1.00  0.00     0.163 HD
ENDROOT
BRANCH   1   5
HETATM    5  C6  UNL     1      11.532  14.785  10.564  1.00  0.00     0.191 C 
HETATM    6  C5  UNL     1      12.055  13.350  10.234  1.00  0.00     0.251 C 
HETATM    7  N1  UNL     1      11.273  12.558   9.408  1.00  0.00    -0.280 N 
HETATM    8  O2  UNL     1      13.144  13.064  10.761  1.00  0.00    -0.271 OA
HETATM    9  C2  UNL     1      11.250  12.202   7.975  1.00  0.00     0.114 C 
HETATM   10  C4  UNL     1      10.049  11.841   9.457  1.00  0.00     0.242 C 
HETATM   11  C1  UNL     1      11.304  10.737   7.726  1.00  0.00     0.034 C 
HETATM   12  C3  UNL     1       9.748  12.681   8.198  1.00  0.00     0.163 C 
HETATM   13  S2  UNL     1       9.770  14.429   8.541  1.00  0.00    -0.145 SA
HETATM   14  C15 UNL     1      10.057  14.764  10.282  1.00  0.00     0.076 C 
HETATM   15  C16 UNL     1       9.406  16.072  10.661  1.00  0.00     0.024 C 
HETATM   16  O1  UNL     1       9.301  11.004   9.982  1.00  0.00    -0.272 OA
ENDBRANCH   1   5
BRANCH   2  17
HETATM   17  C8  UNL     1      13.043  16.335  13.626  1.00  0.00     0.092 A 
HETATM   18  C9  UNL     1      12.077  15.239  14.286  1.00  0.00     0.213 A 
HETATM   19  N3  UNL     1      12.319  15.369  15.574  1.00  0.00    -0.334 N 
HETATM   20  S1  UNL     1      13.340  16.492  15.232  1.00  0.00    -0.059 SA
BRANCH  19  21
HETATM   21  C10 UNL     1      11.822  14.725  16.790  1.00  0.00     0.092 C 
HETATM   22  C11 UNL     1      11.934  15.628  17.989  1.00  0.00     0.026 C 
HETATM   23  C12 UNL     1      12.200  14.713  19.179  1.00  0.00     0.002 C 
HETATM   24  C13 UNL     1      12.262  13.309  18.611  1.00  0.00     0.002 C 
HETATM   25  C14 UNL     1      12.730  13.577  17.195  1.00  0.00     0.026 C 
ENDBRANCH  19  21
ENDBRANCH   2  17
TORSDOF 3
ENDMDL
MODEL 6
REMARK VINA RESULT:    -5.790      2.375      7.408
REMARK INTER + INTRA:          -6.759
REMARK INTER:                  -6.981
REMARK INTRA:                   0.222
REMARK UNBOUND:                 0.046
REMARK  3 active torsions:
REMARK  status: ('A' for Active; 'I' for Inactive)
REMARK    1  A    between atoms: C6_9  and  N2_10 
REMARK       I    between atoms: N2_10  and  C7_11 
REMARK    2  A    between atoms: C7_11  and  C8_13 
REMARK    3  A    between atoms: N3_15  and  C10_16 
ROOT
HETATM    1  N2  UNL     1      15.486   2.197   9.881  1.00  0.00    -0.342 N 
HETATM    2  C7  UNL     1      16.846   1.657   9.616  1.00  0.00     0.258 C 
HETATM    3  O3  UNL     1      16.868   0.459   9.585  1.00  0.00    -0.267 OA
HETATM    4  H7  UNL     1      15.336   3.217   9.940  1.00  0.00     0.163 HD
ENDROOT
BRANCH   1   5
HETATM    5  C6  UNL     1      14.452   1.207  10.043  1.00  0.00     0.191 C 
HETATM    6  C5  UNL     1      14.097   1.203  11.564  1.00  0.00     0.251 C 
HETATM    7  N1  UNL     1      12.765   1.033  11.910  1.00  0.00    -0.280 N 
HETATM    8  O2  UNL     1      15.070   1.358  12.322  1.00  0.00    -0.271 OA
HETATM    9  C2  UNL     1      11.907  -0.088  12.345  1.00  0.00     0.114 C 
HETATM   10  C4  UNL     1      11.547   1.760  11.873  1.00  0.00     0.242 C 
HETATM   11  C1  UNL     1      11.218   0.160  13.639  1.00  0.00     0.034 C 
HETATM   12  C3  UNL     1      11.058   0.498  11.132  1.00  0.00     0.163 C 
HETATM   13  S2  UNL     1      11.970   0.211   9.629  1.00  0.00    -0.145 SA
HETATM   14  C15 UNL     1      13.171   1.509   9.319  1.00  0.00     0.076 C 
HETATM   15  C16 UNL     1      13.399   1.645   7.832  1.00  0.00     0.024 C 
HETATM   16  O1  UNL     1      10.876   2.767  12.137  1.00  0.00    -0.272 OA
ENDBRANCH   1   5
BRANCH   2  17
HETATM   17  C8  UNL     1      17.807   2.776   9.459  1.00  0.00     0.092 A 
HETATM   18  C9  UNL     1      16.881   4.076   9.600  1.00  0.00     0.213 A 
HETATM   19  N3  UNL     1      17.738   5.066   9.460  1.00  0.00    -0.334 N 
HETATM   20  S1  UNL     1      18.870   4.014   9.284  1.00  0.00    -0.059 SA
BRANCH  19  21
HETATM   21  C10 UNL     1      17.641   6.526   9.464  1.00  0.00     0.092 C 
HETATM   22  C11 UNL     1      16.324   7.002   8.911  1.00  0.00     0.026 C 
HETATM   23  C12 UNL     1      16.615   8.328   8.217  1.00  0.00     0.002 C 
HETATM   24  C13 UNL     1      18.106   8.552   8.370  1.00  0.00     0.002 C 
HETATM   25  C14 UNL     1      18.617   7.129   8.468  1.00  0.00     0.026 C 
ENDBRANCH  19  21
ENDBRANCH   2  17
TORSDOF 3
ENDMDL
MODEL 7
REMARK VINA RESULT:    -5.711      2.184      3.057
REMARK INTER + INTRA:          -6.666
REMARK INTER:                  -6.758
REMARK INTRA:                   0.092
REMARK UNBOUND:                 0.046
REMARK  3 active torsions:
REMARK  status: ('A' for Active; 'I' for Inactive)
REMARK    1  A    between atoms: C6_9  and  N2_10 
REMARK       I    between atoms: N2_10  and  C7_11 
REMARK    2  A    between atoms: C7_11  and  C8_13 
REMARK    3  A    between atoms: N3_15  and  C10_16 
ROOT
HETATM    1  N2  UNL     1      14.680   3.024   8.497  1.00  0.00    -0.342 N 
HETATM    2  C7  UNL     1      13.561   4.001   8.428  1.00  0.00     0.258 C 
HETATM    3  O3  UNL     1      13.944   5.136   8.374  1.00  0.00    -0.267 OA
HETATM    4  H7  UNL     1      14.480   2.012   8.556  1.00  0.00     0.163 HD
ENDROOT
BRANCH   1   5
HETATM    5  C6  UNL     1      16.000   3.598   8.479  1.00  0.00     0.191 C 
HETATM    6  C5  UNL     1      16.671   3.172   9.824  1.00  0.00     0.251 C 
HETATM    7  N1  UNL     1      18.021   2.856   9.794  1.00  0.00    -0.280 N 
HETATM    8  O2  UNL     1      15.904   3.160  10.803  1.00  0.00    -0.271 OA
HETATM    9  C2  UNL     1      19.289   3.547  10.103  1.00  0.00     0.114 C 
HETATM   10  C4  UNL     1      18.868   1.820   9.321  1.00  0.00     0.242 C 
HETATM   11  C1  UNL     1      20.125   2.834  11.105  1.00  0.00     0.034 C 
HETATM   12  C3  UNL     1      19.582   3.004   8.635  1.00  0.00     0.163 C 
HETATM   13  S2  UNL     1      18.510   3.864   7.503  1.00  0.00    -0.145 SA
HETATM   14  C15 UNL     1      16.896   3.085   7.388  1.00  0.00     0.076 C 
HETATM   15  C16 UNL     1      16.304   3.343   6.024  1.00  0.00     0.024 C 
HETATM   16  O1  UNL     1      19.190   0.626   9.255  1.00  0.00    -0.272 OA
ENDBRANCH   1   5
BRANCH   2  17
HETATM   17  C8  UNL     1      12.264   3.281   8.443  1.00  0.00     0.092 A 
HETATM   18  C9  UNL     1      11.720   3.539   9.928  1.00  0.00     0.213 A 
HETATM   19  N3  UNL     1      10.570   2.897   9.936  1.00  0.00    -0.334 N 
HETATM   20  S1  UNL     1      10.830   2.484   8.460  1.00  0.00    -0.059 SA
BRANCH  19  21
HETATM   21  C10 UNL     1       9.516   2.677  10.928  1.00  0.00     0.092 C 
HETATM   22  C11 UNL     1       8.663   3.903  11.121  1.00  0.00     0.026 C 
HETATM   23  C12 UNL     1       8.234   3.889  12.584  1.00  0.00     0.002 C 
HETATM   24  C13 UNL     1       8.888   2.663  13.190  1.00  0.00     0.002 C 
HETATM   25  C14 UNL     1      10.114   2.509  12.314  1.00  0.00     0.026 C 
ENDBRANCH  19  21
ENDBRANCH   2  17
TORSDOF 3
ENDMDL
MODEL 8
REMARK VINA RESULT:    -5.697      3.116      4.228
REMARK INTER + INTRA:          -6.650
REMARK INTER:                  -6.861
REMARK INTRA:                   0.212
REMARK UNBOUND:                 0.046
REMARK  3 active torsions:
REMARK  status: ('A' for Active; 'I' for Inactive)
REMARK    1  A    between atoms: C6_9  and  N2_10 
REMARK       I    between atoms: N2_10  and  C7_11 
REMARK    2  A    between atoms: C7_11  and  C8_13 
REMARK    3  A    between atoms: N3_15  and  C10_16 
ROOT
HETATM    1  N2  UNL     1      14.551   2.444   8.595  1.00  0.00    -0.342 N 
HETATM    2  C7  UNL     1      13.156   2.118   8.992  1.00  0.00     0.258 C 
HETATM    3  O3  UNL     1      13.052   1.886  10.164  1.00  0.00    -0.267 OA
HETATM    4  H7  UNL     1      14.773   2.655   7.609  1.00  0.00     0.163 HD
ENDROOT
BRANCH   1   5
HETATM    5  C6  UNL     1      15.514   2.433   9.667  1.00  0.00     0.191 C 
HETATM    6  C5  UNL     1      16.482   1.246   9.361  1.00  0.00     0.251 C 
HETATM    7  N1  UNL     1      17.827   1.426   9.650  1.00  0.00    -0.280 N 
HETATM    8  O2  UNL     1      15.932   0.241   8.877  1.00  0.00    -0.271 OA
HETATM    9  C2  UNL     1      18.740   1.069  10.754  1.00  0.00     0.114 C 
HETATM   10  C4  UNL     1      18.942   2.150   9.154  1.00  0.00     0.242 C 
HETATM   11  C1  UNL     1      19.925   0.285  10.314  1.00  0.00     0.034 C 
HETATM   12  C3  UNL     1      19.016   2.631  10.618  1.00  0.00     0.163 C 
HETATM   13  S2  UNL     1      17.540   3.498  11.111  1.00  0.00    -0.145 SA
HETATM   14  C15 UNL     1      16.376   3.660   9.753  1.00  0.00     0.076 C 
HETATM   15  C16 UNL     1      15.543   4.904   9.945  1.00  0.00     0.024 C 
HETATM   16  O1  UNL     1      19.702   2.473   8.231  1.00  0.00    -0.272 OA
ENDBRANCH   1   5
BRANCH   2  17
HETATM   17  C8  UNL     1      12.270   2.176   7.803  1.00  0.00     0.092 A 
HETATM   18  C9  UNL     1      10.905   1.522   8.332  1.00  0.00     0.213 A 
HETATM   19  N3  UNL     1      10.123   1.576   7.273  1.00  0.00    -0.334 N 
HETATM   20  S1  UNL     1      11.291   2.239   6.488  1.00  0.00    -0.059 SA
BRANCH  19  21
HETATM   21  C10 UNL     1       8.748   1.170   6.983  1.00  0.00     0.092 C 
HETATM   22  C11 UNL     1       8.387   1.406   5.539  1.00  0.00     0.026 C 
HETATM   23  C12 UNL     1       6.902   1.752   5.530  1.00  0.00     0.002 C 
HETATM   24  C13 UNL     1       6.468   1.734   6.983  1.00  0.00     0.002 C 
HETATM   25  C14 UNL     1       7.762   2.084   7.689  1.00  0.00     0.026 C 
ENDBRANCH  19  21
ENDBRANCH   2  17
TORSDOF 3
ENDMDL
MODEL 9
REMARK VINA RESULT:    -5.577      4.131      5.053
REMARK INTER + INTRA:          -6.509
REMARK INTER:                  -6.555
REMARK INTRA:                   0.046
REMARK UNBOUND:                 0.046
REMARK  3 active torsions:
REMARK  status: ('A' for Active; 'I' for Inactive)
REMARK    1  A    between atoms: C6_9  and  N2_10 
REMARK       I    between atoms: N2_10  and  C7_11 
REMARK    2  A    between atoms: C7_11  and  C8_13 
REMARK    3  A    between atoms: N3_15  and  C10_16 
ROOT
HETATM    1  N2  UNL     1      13.166   3.921   8.934  1.00  0.00    -0.342 N 
HETATM    2  C7  UNL     1      13.715   2.578   8.606  1.00  0.00     0.258 C 
HETATM    3  O3  UNL     1      14.359   2.578   7.595  1.00  0.00    -0.267 OA
HETATM    4  H7  UNL     1      12.585   4.051   9.777  1.00  0.00     0.163 HD
ENDROOT
BRANCH   1   5
HETATM    5  C6  UNL     1      13.504   4.967   8.003  1.00  0.00     0.191 C 
HETATM    6  C5  UNL     1      12.145   5.526   7.474  1.00  0.00     0.251 C 
HETATM    7  N1  UNL     1      12.055   6.892   7.257  1.00  0.00    -0.280 N 
HETATM    8  O2  UNL     1      11.265   4.664   7.300  1.00  0.00    -0.271 OA
HETATM    9  C2  UNL     1      12.165   7.801   6.098  1.00  0.00     0.114 C 
HETATM   10  C4  UNL     1      11.982   8.094   8.008  1.00  0.00     0.242 C 
HETATM   11  C1  UNL     1      10.967   8.660   5.901  1.00  0.00     0.034 C 
HETATM   12  C3  UNL     1      13.183   8.477   7.119  1.00  0.00     0.163 C 
HETATM   13  S2  UNL     1      14.559   7.370   7.343  1.00  0.00    -0.145 SA
HETATM   14  C15 UNL     1      14.227   6.137   8.606  1.00  0.00     0.076 C 
HETATM   15  C16 UNL     1      15.523   5.710   9.252  1.00  0.00     0.024 C 
HETATM   16  O1  UNL     1      11.460   8.794   8.886  1.00  0.00    -0.272 OA
ENDBRANCH   1   5
BRANCH   2  17
HETATM   17  C8  UNL     1      13.304   1.601   9.645  1.00  0.00     0.092 A 
HETATM   18  C9  UNL     1      11.995   2.274  10.280  1.00  0.00     0.213 A 
HETATM   19  N3  UNL     1      11.634   1.404  11.202  1.00  0.00    -0.334 N 
HETATM   20  S1  UNL     1      12.849   0.523  10.794  1.00  0.00    -0.059 SA
BRANCH  19  21
HETATM   21  C10 UNL     1      10.551   1.326  12.183  1.00  0.00     0.092 C 
HETATM   22  C11 UNL     1       9.760   2.606  12.246  1.00  0.00     0.026 C 
HETATM   23  C12 UNL     1       9.303   2.745  13.694  1.00  0.00     0.002 C 
HETATM   24  C13 UNL     1       9.879   1.546  14.422  1.00  0.00     0.002 C 
HETATM   25  C14 UNL     1      11.112   1.253  13.592  1.00  0.00     0.026 C 
ENDBRANCH  19  21
ENDBRANCH   2  17
TORSDOF 3
ENDMDL
