MODEL 1
REMARK VINA RESULT:    -7.024      0.000      0.000
REMARK INTER + INTRA:         -10.653
REMARK INTER:                  -9.362
REMARK INTRA:                  -1.291
REMARK UNBOUND:                -0.960
REMARK  7 active torsions:
REMARK  status: ('A' for Active; 'I' for Inactive)
REMARK    1  A    between atoms: O1_2  and  C2_3 
REMARK    2  A    between atoms: C3_4  and  C14_22 
REMARK       I    between atoms: N1_7  and  C5_8 
REMARK    3  A    between atoms: C5_8  and  C6_10 
REMARK    4  A    between atoms: C6_10  and  N2_11 
REMARK    5  A    between atoms: C6_10  and  C11_19 
REMARK       I    between atoms: N2_11  and  C7_12 
REMARK    6  A    between atoms: C7_12  and  C8_14 
REMARK    7  A    between atoms: C14_22  and  O6_24 
ROOT
HETATM    1  C2  UNL     1      10.614   2.075  12.681  1.00  0.00     0.256 A 
HETATM    2  C3  UNL     1      11.020   0.758  13.120  1.00  0.00     0.225 A 
HETATM    3  C4  UNL     1      11.997   0.726  11.988  1.00  0.00     0.247 A 
HETATM    4  O2  UNL     1      12.842  -0.106  11.562  1.00  0.00    -0.272 OA
HETATM    5  N1  UNL     1      11.550   2.075  11.572  1.00  0.00    -0.257 N 
HETATM    6  C5  UNL     1      11.895   2.992  10.531  1.00  0.00     0.251 C 
HETATM    7  O3  UNL     1      11.304   4.103  10.467  1.00  0.00    -0.271 OA
ENDROOT
BRANCH   6   8
HETATM    8  C6  UNL     1      12.920   2.607   9.493  1.00  0.00     0.181 C 
BRANCH   8   9
HETATM    9  N2  UNL     1      14.256   2.493  10.096  1.00  0.00    -0.342 N 
HETATM   10  C7  UNL     1      15.234   1.536   9.651  1.00  0.00     0.271 C 
HETATM   11  O4  UNL     1      14.892   0.605   8.873  1.00  0.00    -0.266 OA
HETATM   12  H7  UNL     1      14.521   3.181  10.834  1.00  0.00     0.163 HD
BRANCH  10  13
HETATM   13  C8  UNL     1      16.641   1.609  10.091  1.00  0.00     0.131 A 
HETATM   14  C9  UNL     1      17.285   2.783  10.486  1.00  0.00     0.088 A 
HETATM   15  S1  UNL     1      18.871   2.389  10.876  1.00  0.00    -0.092 SA
HETATM   16  C10 UNL     1      18.684   0.758  10.530  1.00  0.00     0.166 A 
HETATM   17  N3  UNL     1      17.426   0.496  10.115  1.00  0.00    -0.248 NA
ENDBRANCH  10  13
ENDBRANCH   8   9
BRANCH   8  18
HETATM   18  C11 UNL     1      12.921   3.608   8.306  1.00  0.00     0.009 C 
HETATM   19  C12 UNL     1      14.079   4.619   8.371  1.00  0.00     0.012 C 
HETATM   20  C13 UNL     1      12.941   2.869   6.962  1.00  0.00     0.012 C 
ENDBRANCH   8  18
ENDBRANCH   6   8
BRANCH   1  21
HETATM   21  O1  UNL     1       9.283   2.057  12.194  1.00  0.00    -0.369 OA
HETATM   22  C1  UNL     1       8.608   3.232  12.582  1.00  0.00     0.204 C 
ENDBRANCH   1  21
BRANCH   2  23
HETATM   23  C14 UNL     1      11.691   0.735  14.467  1.00  0.00     0.157 C 
HETATM   24  O5  UNL     1      11.052   1.034  15.513  1.00  0.00    -0.649 OA
BRANCH  23  25
HETATM   25  O6  UNL     1      13.023   0.346  14.559  1.00  0.00    -0.776 OA
HETATM   26  H17 UNL     1      13.505   0.345  15.450  1.00  0.00     0.167 HD
ENDBRANCH  23  25
ENDBRANCH   2  23
TORSDOF 7
ENDMDL
MODEL 2
REMARK VINA RESULT:    -6.706      1.500      1.813
REMARK INTER + INTRA:         -10.215
REMARK INTER:                  -9.325
REMARK INTRA:                  -0.890
REMARK UNBOUND:                -0.960
REMARK  7 active torsions:
REMARK  status: ('A' for Active; 'I' for Inactive)
REMARK    1  A    between atoms: O1_2  and  C2_3 
REMARK    2  A    between atoms: C3_4  and  C14_22 
REMARK       I    between atoms: N1_7  and  C5_8 
REMARK    3  A    between atoms: C5_8  and  C6_10 
REMARK    4  A    between atoms: C6_10  and  N2_11 
REMARK    5  A    between atoms: C6_10  and  C11_19 
REMARK       I    between atoms: N2_11  and  C7_12 
REMARK    6  A    between atoms: C7_12  and  C8_14 
REMARK    7  A    between atoms: C14_22  and  O6_24 
ROOT
HETATM    1  C2  UNL     1       9.723   2.875  12.629  1.00  0.00     0.256 A 
HETATM    2  C3  UNL     1       9.593   1.626  13.348  1.00  0.00     0.225 A 
HETATM    3  C4  UNL     1      10.626   1.041  12.437  1.00  0.00     0.247 A 
HETATM    4  O2  UNL     1      11.175  -0.086  12.319  1.00  0.00    -0.272 OA
HETATM    5  N1  UNL     1      10.725   2.338  11.729  1.00  0.00    -0.257 N 
HETATM    6  C5  UNL     1      11.487   2.848  10.632  1.00  0.00     0.251 C 
HETATM    7  O3  UNL     1      11.329   4.047  10.276  1.00  0.00    -0.271 OA
ENDROOT
BRANCH   6   8
HETATM    8  C6  UNL     1      12.432   1.943   9.880  1.00  0.00     0.181 C 
BRANCH   8   9
HETATM    9  N2  UNL     1      13.823   2.391  10.042  1.00  0.00    -0.342 N 
HETATM   10  C7  UNL     1      14.740   1.769  10.961  1.00  0.00     0.271 C 
HETATM   11  O4  UNL     1      14.309   0.961  11.827  1.00  0.00    -0.266 OA
HETATM   12  H7  UNL     1      14.170   3.149   9.415  1.00  0.00     0.163 HD
BRANCH  10  13
HETATM   13  C8  UNL     1      16.186   2.063  10.923  1.00  0.00     0.131 A 
HETATM   14  C9  UNL     1      16.731   3.347  10.874  1.00  0.00     0.088 A 
HETATM   15  S1  UNL     1      18.402   3.190  10.821  1.00  0.00    -0.092 SA
HETATM   16  C10 UNL     1      18.373   1.514  10.859  1.00  0.00     0.166 A 
HETATM   17  N3  UNL     1      17.104   1.056  10.908  1.00  0.00    -0.248 NA
ENDBRANCH  10  13
ENDBRANCH   8   9
BRANCH   8  18
HETATM   18  C11 UNL     1      12.042   1.846   8.380  1.00  0.00     0.009 C 
HETATM   19  C12 UNL     1      13.237   1.526   7.466  1.00  0.00     0.012 C 
HETATM   20  C13 UNL     1      10.924   0.816   8.168  1.00  0.00     0.012 C 
ENDBRANCH   8  18
ENDBRANCH   6   8
BRANCH   1  21
HETATM   21  O1  UNL     1       8.536   3.171  11.914  1.00  0.00    -0.369 OA
HETATM   22  C1  UNL     1       7.757   4.104  12.630  1.00  0.00     0.204 C 
ENDBRANCH   1  21
BRANCH   2  23
HETATM   23  C14 UNL     1      10.050   1.688  14.781  1.00  0.00     0.157 C 
HETATM   24  O5  UNL     1      11.101   1.096  15.151  1.00  0.00    -0.649 OA
BRANCH  23  25
HETATM   25  O6  UNL     1       9.319   2.435  15.698  1.00  0.00    -0.776 OA
HETATM   26  H17 UNL     1       9.356   3.448  15.692  1.00  0.00     0.167 HD
ENDBRANCH  23  25
ENDBRANCH   2  23
TORSDOF 7
ENDMDL
MODEL 3
REMARK VINA RESULT:    -6.200      2.813      6.023
REMARK INTER + INTRA:          -9.516
REMARK INTER:                  -8.916
REMARK INTRA:                  -0.600
REMARK UNBOUND:                -0.960
REMARK  7 active torsions:
REMARK  status: ('A' for Active; 'I' for Inactive)
REMARK    1  A    between atoms: O1_2  and  C2_3 
REMARK    2  A    between atoms: C3_4  and  C14_22 
REMARK       I    between atoms: N1_7  and  C5_8 
REMARK    3  A    between atoms: C5_8  and  C6_10 
REMARK    4  A    between atoms: C6_10  and  N2_11 
REMARK    5  A    between atoms: C6_10  and  C11_19 
REMARK       I    between atoms: N2_11  and  C7_12 
REMARK    6  A    between atoms: C7_12  and  C8_14 
REMARK    7  A    between atoms: C14_22  and  O6_24 
ROOT
HETATM    1  C2  UNL     1      15.824   3.451   9.519  1.00  0.00     0.256 A 
HETATM    2  C3  UNL     1      16.330   2.318  10.264  1.00  0.00     0.225 A 
HETATM    3  C4  UNL     1      14.917   1.861  10.450  1.00  0.00     0.247 A 
HETATM    4  O2  UNL     1      14.363   0.888  11.026  1.00  0.00    -0.272 OA
HETATM    5  N1  UNL     1      14.443   3.036   9.681  1.00  0.00    -0.257 N 
HETATM    6  C5  UNL     1      13.173   3.542   9.268  1.00  0.00     0.251 C 
HETATM    7  O3  UNL     1      13.123   4.603   8.590  1.00  0.00    -0.271 OA
ENDROOT
BRANCH   6   8
HETATM    8  C6  UNL     1      11.904   2.838   9.685  1.00  0.00     0.181 C 
BRANCH   8   9
HETATM    9  N2  UNL     1      12.010   2.348  11.067  1.00  0.00    -0.342 N 
HETATM   10  C7  UNL     1      10.872   2.222  11.939  1.00  0.00     0.271 C 
HETATM   11  O4  UNL     1       9.773   2.747  11.616  1.00  0.00    -0.266 OA
HETATM   12  H7  UNL     1      12.942   2.019  11.400  1.00  0.00     0.163 HD
BRANCH  10  13
HETATM   13  C8  UNL     1      10.960   1.495  13.220  1.00  0.00     0.131 A 
HETATM   14  C9  UNL     1       9.942   1.449  14.174  1.00  0.00     0.088 A 
HETATM   15  S1  UNL     1      10.496   0.532  15.468  1.00  0.00    -0.092 SA
HETATM   16  C10 UNL     1      11.995   0.231  14.777  1.00  0.00     0.166 A 
HETATM   17  N3  UNL     1      12.093   0.821  13.567  1.00  0.00    -0.248 NA
ENDBRANCH  10  13
ENDBRANCH   8   9
BRANCH   8  18
HETATM   18  C11 UNL     1      11.552   1.688   8.704  1.00  0.00     0.009 C 
HETATM   19  C12 UNL     1      11.589   0.299   9.365  1.00  0.00     0.012 C 
HETATM   20  C13 UNL     1      10.185   1.923   8.047  1.00  0.00     0.012 C 
ENDBRANCH   8  18
ENDBRANCH   6   8
BRANCH   1  21
HETATM   21  O1  UNL     1      16.054   4.661  10.220  1.00  0.00    -0.369 OA
HETATM   22  C1  UNL     1      17.416   4.770  10.566  1.00  0.00     0.204 C 
ENDBRANCH   1  21
BRANCH   2  23
HETATM   23  C14 UNL     1      17.149   1.357   9.447  1.00  0.00     0.157 C 
HETATM   24  O5  UNL     1      17.623   0.308   9.965  1.00  0.00    -0.649 OA
BRANCH  23  25
HETATM   25  O6  UNL     1      17.357   1.614   8.097  1.00  0.00    -0.776 OA
HETATM   26  H17 UNL     1      18.183   2.109   7.782  1.00  0.00     0.167 HD
ENDBRANCH  23  25
ENDBRANCH   2  23
TORSDOF 7
ENDMDL
MODEL 4
REMARK VINA RESULT:    -6.150      1.960      3.531
REMARK INTER + INTRA:          -9.447
REMARK INTER:                  -8.482
REMARK INTRA:                  -0.965
REMARK UNBOUND:                -0.960
REMARK  7 active torsions:
REMARK  status: ('A' for Active; 'I' for Inactive)
REMARK    1  A    between atoms: O1_2  and  C2_3 
REMARK    2  A    between atoms: C3_4  and  C14_22 
REMARK       I    between atoms: N1_7  and  C5_8 
REMARK    3  A    between atoms: C5_8  and  C6_10 
REMARK    4  A    between atoms: C6_10  and  N2_11 
REMARK    5  A    between atoms: C6_10  and  C11_19 
REMARK       I    between atoms: N2_11  and  C7_12 
REMARK    6  A    between atoms: C7_12  and  C8_14 
REMARK    7  A    between atoms: C14_22  and  O6_24 
ROOT
HETATM    1  C2  UNL     1       9.798   2.080  12.603  1.00  0.00     0.256 A 
HETATM    2  C3  UNL     1       9.403   3.432  12.272  1.00  0.00     0.225 A 
HETATM    3  C4  UNL     1      10.335   3.375  11.103  1.00  0.00     0.247 A 
HETATM    4  O2  UNL     1      10.665   4.173  10.186  1.00  0.00    -0.272 OA
HETATM    5  N1  UNL     1      10.711   1.992  11.479  1.00  0.00    -0.257 N 
HETATM    6  C5  UNL     1      11.589   0.994  10.957  1.00  0.00     0.251 C 
HETATM    7  O3  UNL     1      11.668  -0.123  11.536  1.00  0.00    -0.271 OA
ENDROOT
BRANCH   6   8
HETATM    8  C6  UNL     1      12.449   1.296   9.753  1.00  0.00     0.181 C 
BRANCH   8   9
HETATM    9  N2  UNL     1      13.365   2.411  10.034  1.00  0.00    -0.342 N 
HETATM   10  C7  UNL     1      14.788   2.239  10.160  1.00  0.00     0.271 C 
HETATM   11  O4  UNL     1      15.274   1.080  10.260  1.00  0.00    -0.266 OA
HETATM   12  H7  UNL     1      12.966   3.374  10.077  1.00  0.00     0.163 HD
BRANCH  10  13
HETATM   13  C8  UNL     1      15.705   3.396  10.185  1.00  0.00     0.131 A 
HETATM   14  C9  UNL     1      16.977   3.383  10.760  1.00  0.00     0.088 A 
HETATM   15  S1  UNL     1      17.637   4.917  10.572  1.00  0.00    -0.092 SA
HETATM   16  C10 UNL     1      16.296   5.535   9.777  1.00  0.00     0.166 A 
HETATM   17  N3  UNL     1      15.337   4.593   9.649  1.00  0.00    -0.248 NA
ENDBRANCH  10  13
ENDBRANCH   8   9
BRANCH   8  18
HETATM   18  C11 UNL     1      11.581   1.581   8.499  1.00  0.00     0.009 C 
HETATM   19  C12 UNL     1      12.396   2.115   7.309  1.00  0.00     0.012 C 
HETATM   20  C13 UNL     1      10.792   0.333   8.080  1.00  0.00     0.012 C 
ENDBRANCH   8  18
ENDBRANCH   6   8
BRANCH   1  21
HETATM   21  O1  UNL     1      10.522   2.049  13.821  1.00  0.00    -0.369 OA
HETATM   22  C1  UNL     1      10.102   0.959  14.609  1.00  0.00     0.204 C 
ENDBRANCH   1  21
BRANCH   2  23
HETATM   23  C14 UNL     1       7.962   3.572  11.862  1.00  0.00     0.157 C 
HETATM   24  O5  UNL     1       7.095   3.991  12.676  1.00  0.00    -0.649 OA
BRANCH  23  25
HETATM   25  O6  UNL     1       7.593   3.266  10.556  1.00  0.00    -0.776 OA
HETATM   26  H17 UNL     1       7.304   2.329  10.303  1.00  0.00     0.167 HD
ENDBRANCH  23  25
ENDBRANCH   2  23
TORSDOF 7
ENDMDL
MODEL 5
REMARK VINA RESULT:    -5.874      4.419      6.598
REMARK INTER + INTRA:          -9.067
REMARK INTER:                  -7.996
REMARK INTRA:                  -1.071
REMARK UNBOUND:                -0.960
REMARK  7 active torsions:
REMARK  status: ('A' for Active; 'I' for Inactive)
REMARK    1  A    between atoms: O1_2  and  C2_3 
REMARK    2  A    between atoms: C3_4  and  C14_22 
REMARK       I    between atoms: N1_7  and  C5_8 
REMARK    3  A    between atoms: C5_8  and  C6_10 
REMARK    4  A    between atoms: C6_10  and  N2_11 
REMARK    5  A    between atoms: C6_10  and  C11_19 
REMARK       I    between atoms: N2_11  and  C7_12 
REMARK    6  A    between atoms: C7_12  and  C8_14 
REMARK    7  A    between atoms: C14_22  and  O6_24 
ROOT
HETATM    1  C2  UNL     1      11.335   0.678  11.854  1.00  0.00     0.256 A 
HETATM    2  C3  UNL     1      11.033   1.848  12.650  1.00  0.00     0.225 A 
HETATM    3  C4  UNL     1      10.844   2.614  11.379  1.00  0.00     0.247 A 
HETATM    4  O2  UNL     1      10.546   3.803  11.091  1.00  0.00    -0.272 OA
HETATM    5  N1  UNL     1      11.160   1.392  10.603  1.00  0.00    -0.257 N 
HETATM    6  C5  UNL     1      11.248   1.055   9.217  1.00  0.00     0.251 C 
HETATM    7  O3  UNL     1      11.542  -0.125   8.887  1.00  0.00    -0.271 OA
ENDROOT
BRANCH   6   8
HETATM    8  C6  UNL     1      11.040   2.117   8.165  1.00  0.00     0.181 C 
BRANCH   8   9
HETATM    9  N2  UNL     1       9.973   1.724   7.232  1.00  0.00    -0.342 N 
HETATM   10  C7  UNL     1       8.597   2.105   7.416  1.00  0.00     0.271 C 
HETATM   11  O4  UNL     1       8.224   2.600   8.514  1.00  0.00    -0.266 OA
HETATM   12  H7  UNL     1      10.243   1.203   6.370  1.00  0.00     0.163 HD
BRANCH  10  13
HETATM   13  C8  UNL     1       7.597   1.921   6.347  1.00  0.00     0.131 A 
HETATM   14  C9  UNL     1       7.858   1.315   5.116  1.00  0.00     0.088 A 
HETATM   15  S1  UNL     1       6.438   1.351   4.219  1.00  0.00    -0.092 SA
HETATM   16  C10 UNL     1       5.554   2.129   5.413  1.00  0.00     0.166 A 
HETATM   17  N3  UNL     1       6.320   2.372   6.497  1.00  0.00    -0.248 NA
ENDBRANCH  10  13
ENDBRANCH   8   9
BRANCH   8  18
HETATM   18  C11 UNL     1      12.361   2.428   7.411  1.00  0.00     0.009 C 
HETATM   19  C12 UNL     1      12.486   1.675   6.076  1.00  0.00     0.012 C 
HETATM   20  C13 UNL     1      12.522   3.937   7.183  1.00  0.00     0.012 C 
ENDBRANCH   8  18
ENDBRANCH   6   8
BRANCH   1  21
HETATM   21  O1  UNL     1      12.691   0.297  12.010  1.00  0.00    -0.369 OA
HETATM   22  C1  UNL     1      12.973   0.053  13.370  1.00  0.00     0.204 C 
ENDBRANCH   1  21
BRANCH   2  23
HETATM   23  C14 UNL     1       9.767   1.737  13.456  1.00  0.00     0.157 C 
HETATM   24  O5  UNL     1       9.585   0.769  14.245  1.00  0.00    -0.649 OA
BRANCH  23  25
HETATM   25  O6  UNL     1       8.802   2.733  13.351  1.00  0.00    -0.776 OA
HETATM   26  H17 UNL     1       8.416   2.991  12.451  1.00  0.00     0.167 HD
ENDBRANCH  23  25
ENDBRANCH   2  23
TORSDOF 7
ENDMDL
MODEL 6
REMARK VINA RESULT:    -5.839      3.388      5.378
REMARK INTER + INTRA:          -9.018
REMARK INTER:                  -8.055
REMARK INTRA:                  -0.963
REMARK UNBOUND:                -0.960
REMARK  7 active torsions:
REMARK  status: ('A' for Active; 'I' for Inactive)
REMARK    1  A    between atoms: O1_2  and  C2_3 
REMARK    2  A    between atoms: C3_4  and  C14_22 
REMARK       I    between atoms: N1_7  and  C5_8 
REMARK    3  A    between atoms: C5_8  and  C6_10 
REMARK    4  A    between atoms: C6_10  and  N2_11 
REMARK    5  A    between atoms: C6_10  and  C11_19 
REMARK       I    between atoms: N2_11  and  C7_12 
REMARK    6  A    between atoms: C7_12  and  C8_14 
REMARK    7  A    between atoms: C14_22  and  O6_24 
ROOT
HETATM    1  C2  UNL     1      10.134   1.709  12.045  1.00  0.00     0.256 A 
HETATM    2  C3  UNL     1       9.725   3.097  12.083  1.00  0.00     0.225 A 
HETATM    3  C4  UNL     1      10.627   3.352  10.917  1.00  0.00     0.247 A 
HETATM    4  O2  UNL     1      10.931   4.363  10.230  1.00  0.00    -0.272 OA
HETATM    5  N1  UNL     1      11.017   1.923  10.915  1.00  0.00    -0.257 N 
HETATM    6  C5  UNL     1      11.886   1.102  10.131  1.00  0.00     0.251 C 
HETATM    7  O3  UNL     1      11.983  -0.125  10.401  1.00  0.00    -0.271 OA
ENDROOT
BRANCH   6   8
HETATM    8  C6  UNL     1      12.714   1.713   9.027  1.00  0.00     0.181 C 
BRANCH   8   9
HETATM    9  N2  UNL     1      12.502   0.997   7.760  1.00  0.00    -0.342 N 
HETATM   10  C7  UNL     1      11.417   1.299   6.865  1.00  0.00     0.271 C 
HETATM   11  O4  UNL     1      10.474   2.041   7.251  1.00  0.00    -0.266 OA
HETATM   12  H7  UNL     1      13.210   0.285   7.475  1.00  0.00     0.163 HD
BRANCH  10  13
HETATM   13  C8  UNL     1      11.373   0.752   5.495  1.00  0.00     0.131 A 
HETATM   14  C9  UNL     1      12.481   0.635   4.654  1.00  0.00     0.088 A 
HETATM   15  S1  UNL     1      11.951  -0.014   3.198  1.00  0.00    -0.092 SA
HETATM   16  C10 UNL     1      10.348  -0.120   3.683  1.00  0.00     0.166 A 
HETATM   17  N3  UNL     1      10.198   0.336   4.945  1.00  0.00    -0.248 NA
ENDBRANCH  10  13
ENDBRANCH   8   9
BRANCH   8  18
HETATM   18  C11 UNL     1      14.218   1.752   9.408  1.00  0.00     0.009 C 
HETATM   19  C12 UNL     1      15.120   1.047   8.381  1.00  0.00     0.012 C 
HETATM   20  C13 UNL     1      14.693   3.196   9.625  1.00  0.00     0.012 C 
ENDBRANCH   8  18
ENDBRANCH   6   8
BRANCH   1  21
HETATM   21  O1  UNL     1      10.888   1.373  13.196  1.00  0.00    -0.369 OA
HETATM   22  C1  UNL     1      10.091   1.491  14.352  1.00  0.00     0.204 C 
ENDBRANCH   1  21
BRANCH   2  23
HETATM   23  C14 UNL     1       8.274   3.324  11.757  1.00  0.00     0.157 C 
HETATM   24  O5  UNL     1       7.455   3.668  12.653  1.00  0.00    -0.649 OA
BRANCH  23  25
HETATM   25  O6  UNL     1       7.840   3.183  10.443  1.00  0.00    -0.776 OA
HETATM   26  H17 UNL     1       6.882   3.386  10.186  1.00  0.00     0.167 HD
ENDBRANCH  23  25
ENDBRANCH   2  23
TORSDOF 7
ENDMDL
MODEL 7
REMARK VINA RESULT:    -5.722      4.255      7.104
REMARK INTER + INTRA:          -8.856
REMARK INTER:                  -8.036
REMARK INTRA:                  -0.820
REMARK UNBOUND:                -0.960
REMARK  7 active torsions:
REMARK  status: ('A' for Active; 'I' for Inactive)
REMARK    1  A    between atoms: O1_2  and  C2_3 
REMARK    2  A    between atoms: C3_4  and  C14_22 
REMARK       I    between atoms: N1_7  and  C5_8 
REMARK    3  A    between atoms: C5_8  and  C6_10 
REMARK    4  A    between atoms: C6_10  and  N2_11 
REMARK    5  A    between atoms: C6_10  and  C11_19 
REMARK       I    between atoms: N2_11  and  C7_12 
REMARK    6  A    between atoms: C7_12  and  C8_14 
REMARK    7  A    between atoms: C14_22  and  O6_24 
ROOT
HETATM    1  C2  UNL     1      14.684   3.114   9.441  1.00  0.00     0.256 A 
HETATM    2  C3  UNL     1      15.121   1.938  10.162  1.00  0.00     0.225 A 
HETATM    3  C4  UNL     1      13.683   1.588  10.381  1.00  0.00     0.247 A 
HETATM    4  O2  UNL     1      13.071   0.653  10.962  1.00  0.00    -0.272 OA
HETATM    5  N1  UNL     1      13.281   2.804   9.637  1.00  0.00    -0.257 N 
HETATM    6  C5  UNL     1      12.042   3.411   9.262  1.00  0.00     0.251 C 
HETATM    7  O3  UNL     1      12.056   4.481   8.596  1.00  0.00    -0.271 OA
ENDROOT
BRANCH   6   8
HETATM    8  C6  UNL     1      10.735   2.801   9.706  1.00  0.00     0.181 C 
BRANCH   8   9
HETATM    9  N2  UNL     1       9.675   3.069   8.723  1.00  0.00    -0.342 N 
HETATM   10  C7  UNL     1       9.273   2.109   7.729  1.00  0.00     0.271 C 
HETATM   11  O4  UNL     1       9.980   1.086   7.522  1.00  0.00    -0.266 OA
HETATM   12  H7  UNL     1       9.153   3.969   8.797  1.00  0.00     0.163 HD
BRANCH  10  13
HETATM   13  C8  UNL     1       8.047   2.296   6.928  1.00  0.00     0.131 A 
HETATM   14  C9  UNL     1       6.871   1.564   7.099  1.00  0.00     0.088 A 
HETATM   15  S1  UNL     1       5.763   2.103   5.957  1.00  0.00    -0.092 SA
HETATM   16  C10 UNL     1       6.809   3.233   5.291  1.00  0.00     0.166 A 
HETATM   17  N3  UNL     1       8.002   3.213   5.921  1.00  0.00    -0.248 NA
ENDBRANCH  10  13
ENDBRANCH   8   9
BRANCH   8  18
HETATM   18  C11 UNL     1      10.332   3.301  11.119  1.00  0.00     0.009 C 
HETATM   19  C12 UNL     1       8.948   3.970  11.151  1.00  0.00     0.012 C 
HETATM   20  C13 UNL     1      10.391   2.160  12.144  1.00  0.00     0.012 C 
ENDBRANCH   8  18
ENDBRANCH   6   8
BRANCH   1  21
HETATM   21  O1  UNL     1      15.025   4.294  10.147  1.00  0.00    -0.369 OA
HETATM   22  C1  UNL     1      16.412   4.330  10.395  1.00  0.00     0.204 C 
ENDBRANCH   1  21
BRANCH   2  23
HETATM   23  C14 UNL     1      15.843   0.926   9.315  1.00  0.00     0.157 C 
HETATM   24  O5  UNL     1      16.990   0.511   9.638  1.00  0.00    -0.649 OA
BRANCH  23  25
HETATM   25  O6  UNL     1      15.220   0.419   8.179  1.00  0.00    -0.776 OA
HETATM   26  H17 UNL     1      14.968  -0.561   8.117  1.00  0.00     0.167 HD
ENDBRANCH  23  25
ENDBRANCH   2  23
TORSDOF 7
ENDMDL
MODEL 8
REMARK VINA RESULT:    -5.705      2.425      4.879
REMARK INTER + INTRA:          -8.833
REMARK INTER:                  -7.788
REMARK INTRA:                  -1.045
REMARK UNBOUND:                -0.960
REMARK  7 active torsions:
REMARK  status: ('A' for Active; 'I' for Inactive)
REMARK    1  A    between atoms: O1_2  and  C2_3 
REMARK    2  A    between atoms: C3_4  and  C14_22 
REMARK       I    between atoms: N1_7  and  C5_8 
REMARK    3  A    between atoms: C5_8  and  C6_10 
REMARK    4  A    between atoms: C6_10  and  N2_11 
REMARK    5  A    between atoms: C6_10  and  C11_19 
REMARK       I    between atoms: N2_11  and  C7_12 
REMARK    6  A    between atoms: C7_12  and  C8_14 
REMARK    7  A    between atoms: C14_22  and  O6_24 
ROOT
HETATM    1  C2  UNL     1      10.488   2.127   7.889  1.00  0.00     0.256 A 
HETATM    2  C3  UNL     1      10.327   3.564   7.945  1.00  0.00     0.225 A 
HETATM    3  C4  UNL     1      11.137   3.565   9.203  1.00  0.00     0.247 A 
HETATM    4  O2  UNL     1      11.529   4.448  10.010  1.00  0.00    -0.272 OA
HETATM    5  N1  UNL     1      11.275   2.093   9.106  1.00  0.00    -0.257 N 
HETATM    6  C5  UNL     1      11.916   1.074   9.876  1.00  0.00     0.251 C 
HETATM    7  O3  UNL     1      11.845  -0.125   9.494  1.00  0.00    -0.271 OA
ENDROOT
BRANCH   6   8
HETATM    8  C6  UNL     1      12.628   1.428  11.160  1.00  0.00     0.181 C 
BRANCH   8   9
HETATM    9  N2  UNL     1      14.063   1.129  11.060  1.00  0.00    -0.342 N 
HETATM   10  C7  UNL     1      14.984   1.959  10.329  1.00  0.00     0.271 C 
HETATM   11  O4  UNL     1      14.545   2.852   9.555  1.00  0.00    -0.266 OA
HETATM   12  H7  UNL     1      14.433   0.315  11.598  1.00  0.00     0.163 HD
BRANCH  10  13
HETATM   13  C8  UNL     1      16.445   1.785  10.454  1.00  0.00     0.131 A 
HETATM   14  C9  UNL     1      17.301   2.706  11.060  1.00  0.00     0.088 A 
HETATM   15  S1  UNL     1      18.864   2.100  10.947  1.00  0.00    -0.092 SA
HETATM   16  C10 UNL     1      18.401   0.705  10.138  1.00  0.00     0.166 A 
HETATM   17  N3  UNL     1      17.065   0.685   9.943  1.00  0.00    -0.248 NA
ENDBRANCH  10  13
ENDBRANCH   8   9
BRANCH   8  18
HETATM   18  C11 UNL     1      11.985   0.708  12.376  1.00  0.00     0.009 C 
HETATM   19  C12 UNL     1      12.978   0.458  13.523  1.00  0.00     0.012 C 
HETATM   20  C13 UNL     1      10.766   1.484  12.893  1.00  0.00     0.012 C 
ENDBRANCH   8  18
ENDBRANCH   6   8
BRANCH   1  21
HETATM   21  O1  UNL     1       9.248   1.471   8.093  1.00  0.00    -0.369 OA
HETATM   22  C1  UNL     1       8.980   0.596   7.021  1.00  0.00     0.204 C 
ENDBRANCH   1  21
BRANCH   2  23
HETATM   23  C14 UNL     1      10.998   4.306   6.821  1.00  0.00     0.157 C 
HETATM   24  O5  UNL     1      10.696   4.070   5.619  1.00  0.00    -0.649 OA
BRANCH  23  25
HETATM   25  O6  UNL     1      11.940   5.286   7.117  1.00  0.00    -0.776 OA
HETATM   26  H17 UNL     1      12.527   5.212   7.939  1.00  0.00     0.167 HD
ENDBRANCH  23  25
ENDBRANCH   2  23
TORSDOF 7
ENDMDL
MODEL 9
REMARK VINA RESULT:    -5.499      3.279      7.092
REMARK INTER + INTRA:          -8.549
REMARK INTER:                  -7.589
REMARK INTRA:                  -0.960
REMARK UNBOUND:                -0.960
REMARK  7 active torsions:
REMARK  status: ('A' for Active; 'I' for Inactive)
REMARK    1  A    between atoms: O1_2  and  C2_3 
REMARK    2  A    between atoms: C3_4  and  C14_22 
REMARK       I    between atoms: N1_7  and  C5_8 
REMARK    3  A    between atoms: C5_8  and  C6_10 
REMARK    4  A    between atoms: C6_10  and  N2_11 
REMARK    5  A    between atoms: C6_10  and  C11_19 
REMARK       I    between atoms: N2_11  and  C7_12 
REMARK    6  A    between atoms: C7_12  and  C8_14 
REMARK    7  A    between atoms: C14_22  and  O6_24 
ROOT
HETATM    1  C2  UNL     1      17.513   1.777  10.315  1.00  0.00     0.256 A 
HETATM    2  C3  UNL     1      18.088   2.553   9.238  1.00  0.00     0.225 A 
HETATM    3  C4  UNL     1      16.701   2.929   8.822  1.00  0.00     0.247 A 
HETATM    4  O2  UNL     1      16.205   3.633   7.903  1.00  0.00    -0.272 OA
HETATM    5  N1  UNL     1      16.156   2.121   9.938  1.00  0.00    -0.257 N 
HETATM    6  C5  UNL     1      14.852   1.816  10.437  1.00  0.00     0.251 C 
HETATM    7  O3  UNL     1      14.737   1.076  11.450  1.00  0.00    -0.271 OA
ENDROOT
BRANCH   6   8
HETATM    8  C6  UNL     1      13.627   2.337   9.725  1.00  0.00     0.181 C 
BRANCH   8   9
HETATM    9  N2  UNL     1      12.503   2.484  10.661  1.00  0.00    -0.342 N 
HETATM   10  C7  UNL     1      11.456   3.454  10.477  1.00  0.00     0.271 C 
HETATM   11  O4  UNL     1      11.592   4.369   9.620  1.00  0.00    -0.266 OA
HETATM   12  H7  UNL     1      12.434   1.811  11.455  1.00  0.00     0.163 HD
BRANCH  10  13
HETATM   13  C8  UNL     1      10.217   3.414  11.278  1.00  0.00     0.131 A 
HETATM   14  C9  UNL     1       9.052   4.118  10.969  1.00  0.00     0.088 A 
HETATM   15  S1  UNL     1       7.922   3.786  12.167  1.00  0.00    -0.092 SA
HETATM   16  C10 UNL     1       8.944   2.772  13.027  1.00  0.00     0.166 A 
HETATM   17  N3  UNL     1      10.147   2.677  12.422  1.00  0.00    -0.248 NA
ENDBRANCH  10  13
ENDBRANCH   8   9
BRANCH   8  18
HETATM   18  C11 UNL     1      13.246   1.428   8.525  1.00  0.00     0.009 C 
HETATM   19  C12 UNL     1      11.939   0.649   8.750  1.00  0.00     0.012 C 
HETATM   20  C13 UNL     1      13.160   2.240   7.226  1.00  0.00     0.012 C 
ENDBRANCH   8  18
ENDBRANCH   6   8
BRANCH   1  21
HETATM   21  O1  UNL     1      17.737   0.392  10.114  1.00  0.00    -0.369 OA
HETATM   22  C1  UNL     1      18.888  -0.021  10.816  1.00  0.00     0.204 C 
ENDBRANCH   1  21
BRANCH   2  23
HETATM   23  C14 UNL     1      18.899   3.736   9.693  1.00  0.00     0.157 C 
HETATM   24  O5  UNL     1      19.842   3.595  10.519  1.00  0.00    -0.649 OA
BRANCH  23  25
HETATM   25  O6  UNL     1      18.624   4.994   9.168  1.00  0.00    -0.776 OA
HETATM   26  H17 UNL     1      18.177   5.095   8.265  1.00  0.00     0.167 HD
ENDBRANCH  23  25
ENDBRANCH   2  23
TORSDOF 7
ENDMDL
