MODEL 1
REMARK VINA RESULT:    -7.230      0.000      0.000
REMARK INTER + INTRA:          -9.944
REMARK INTER:                  -9.761
REMARK INTRA:                  -0.183
REMARK UNBOUND:                -0.389
REMARK  6 active torsions:
REMARK  status: ('A' for Active; 'I' for Inactive)
REMARK    1  A    between atoms: C3_3  and  C17_24 
REMARK       I    between atoms: N1_6  and  C5_7 
REMARK    2  A    between atoms: C5_7  and  C6_9 
REMARK    3  A    between atoms: C6_9  and  N2_10 
REMARK    4  A    between atoms: C6_9  and  C11_18 
REMARK       I    between atoms: N2_10  and  C7_11 
REMARK    5  A    between atoms: C7_11  and  C8_13 
REMARK    6  A    between atoms: C17_24  and  O5_26 
ROOT
HETATM    1  C6  UNL     1      12.369   2.056   9.912  1.00  0.00     0.181 C 
ENDROOT
BRANCH   1   2
HETATM    2  C5  UNL     1      11.432   2.919  10.730  1.00  0.00     0.250 C 
HETATM    3  N1  UNL     1      10.680   2.353  11.808  1.00  0.00    -0.280 N 
HETATM    4  C2  UNL     1       9.647   2.841  12.702  1.00  0.00     0.115 A 
HETATM    5  C4  UNL     1      10.627   1.047  12.509  1.00  0.00     0.243 A 
HETATM    6  C1  UNL     1       8.374   3.208  11.930  1.00  0.00     0.034 C 
HETATM    7  C3  UNL     1       9.556   1.581  13.412  1.00  0.00     0.199 A 
HETATM    8  O1  UNL     1      11.227  -0.053  12.397  1.00  0.00    -0.272 OA
HETATM    9  O2  UNL     1      11.271   4.136  10.445  1.00  0.00    -0.271 OA
BRANCH   7  10
HETATM   10  C17 UNL     1       9.992   1.654  14.849  1.00  0.00     0.155 C 
HETATM   11  O4  UNL     1      11.031   1.055  15.241  1.00  0.00    -0.649 OA
BRANCH  10  12
HETATM   12  O5  UNL     1       9.255   2.419  15.747  1.00  0.00    -0.776 OA
HETATM   13  H21 UNL     1       9.078   2.088  16.688  1.00  0.00     0.167 HD
ENDBRANCH  10  12
ENDBRANCH   7  10
ENDBRANCH   1   2
BRANCH   1  14
HETATM   14  N2  UNL     1      13.761   2.500  10.067  1.00  0.00    -0.342 N 
HETATM   15  C7  UNL     1      14.691   1.810  10.920  1.00  0.00     0.271 C 
HETATM   16  O3  UNL     1      14.271   0.935  11.725  1.00  0.00    -0.266 OA
HETATM   17  H7  UNL     1      14.092   3.334   9.532  1.00  0.00     0.163 HD
BRANCH  15  18
HETATM   18  C8  UNL     1      16.137   2.108  10.887  1.00  0.00     0.131 A 
HETATM   19  C9  UNL     1      16.674   3.395  10.834  1.00  0.00     0.088 A 
HETATM   20  S1  UNL     1      18.347   3.248  10.787  1.00  0.00    -0.092 SA
HETATM   21  C10 UNL     1      18.327   1.571  10.833  1.00  0.00     0.166 A 
HETATM   22  N3  UNL     1      17.060   1.106  10.881  1.00  0.00    -0.248 NA
ENDBRANCH  15  18
ENDBRANCH   1  14
BRANCH   1  23
HETATM   23  C11 UNL     1      11.980   2.002   8.407  1.00  0.00     0.018 C 
HETATM   24  C12 UNL     1      10.694   1.170   8.138  1.00  0.00     0.007 C 
HETATM   25  C13 UNL     1      10.607   0.626   6.698  1.00  0.00     0.000 C 
HETATM   26  C14 UNL     1      11.316   1.543   5.700  1.00  0.00     0.000 C 
HETATM   27  C15 UNL     1      12.819   1.681   6.017  1.00  0.00     0.000 C 
HETATM   28  C16 UNL     1      13.148   1.528   7.516  1.00  0.00     0.007 C 
ENDBRANCH   1  23
TORSDOF 6
ENDMDL
MODEL 2
REMARK VINA RESULT:    -6.989      2.562      5.824
REMARK INTER + INTRA:          -9.625
REMARK INTER:                  -9.551
REMARK INTRA:                  -0.074
REMARK UNBOUND:                -0.389
REMARK  6 active torsions:
REMARK  status: ('A' for Active; 'I' for Inactive)
REMARK    1  A    between atoms: C3_3  and  C17_24 
REMARK       I    between atoms: N1_6  and  C5_7 
REMARK    2  A    between atoms: C5_7  and  C6_9 
REMARK    3  A    between atoms: C6_9  and  N2_10 
REMARK    4  A    between atoms: C6_9  and  C11_18 
REMARK       I    between atoms: N2_10  and  C7_11 
REMARK    5  A    between atoms: C7_11  and  C8_13 
REMARK    6  A    between atoms: C17_24  and  O5_26 
ROOT
HETATM    1  C6  UNL     1      11.794   3.019   9.660  1.00  0.00     0.181 C 
ENDROOT
BRANCH   1   2
HETATM    2  C5  UNL     1      13.118   3.621   9.238  1.00  0.00     0.250 C 
HETATM    3  N1  UNL     1      14.351   3.044   9.679  1.00  0.00    -0.280 N 
HETATM    4  C2  UNL     1      15.751   3.406   9.561  1.00  0.00     0.115 A 
HETATM    5  C4  UNL     1      14.761   1.826  10.419  1.00  0.00     0.243 A 
HETATM    6  C1  UNL     1      16.044   4.727  10.283  1.00  0.00     0.034 C 
HETATM    7  C3  UNL     1      16.197   2.233  10.285  1.00  0.00     0.199 A 
HETATM    8  O1  UNL     1      14.159   0.854  10.945  1.00  0.00    -0.272 OA
HETATM    9  O2  UNL     1      13.149   4.662   8.529  1.00  0.00    -0.271 OA
BRANCH   7  10
HETATM   10  C17 UNL     1      16.998   1.268   9.456  1.00  0.00     0.155 C 
HETATM   11  O4  UNL     1      17.605   0.302   9.994  1.00  0.00    -0.649 OA
BRANCH  10  12
HETATM   12  O5  UNL     1      17.041   1.428   8.075  1.00  0.00    -0.776 OA
HETATM   13  H21 UNL     1      17.836   1.870   7.628  1.00  0.00     0.167 HD
ENDBRANCH  10  12
ENDBRANCH   7  10
ENDBRANCH   1   2
BRANCH   1  14
HETATM   14  N2  UNL     1      11.881   2.461  11.017  1.00  0.00    -0.342 N 
HETATM   15  C7  UNL     1      10.724   2.329  11.862  1.00  0.00     0.271 C 
HETATM   16  O3  UNL     1       9.644   2.893  11.537  1.00  0.00    -0.266 OA
HETATM   17  H7  UNL     1      12.806   2.137  11.377  1.00  0.00     0.163 HD
BRANCH  15  18
HETATM   18  C8  UNL     1      10.769   1.553  13.117  1.00  0.00     0.131 A 
HETATM   19  C9  UNL     1      11.926   0.980  13.647  1.00  0.00     0.088 A 
HETATM   20  S1  UNL     1      11.497   0.180  15.060  1.00  0.00    -0.092 SA
HETATM   21  C10 UNL     1       9.873   0.584  14.946  1.00  0.00     0.166 A 
HETATM   22  N3  UNL     1       9.638   1.324  13.841  1.00  0.00    -0.248 NA
ENDBRANCH  15  18
ENDBRANCH   1  14
BRANCH   1  23
HETATM   23  C11 UNL     1      11.275   1.945   8.663  1.00  0.00     0.018 C 
HETATM   24  C12 UNL     1      12.260   1.672   7.491  1.00  0.00     0.007 C 
HETATM   25  C13 UNL     1      11.574   1.091   6.238  1.00  0.00     0.000 C 
HETATM   26  C14 UNL     1      10.344   0.255   6.599  1.00  0.00     0.000 C 
HETATM   27  C15 UNL     1       9.274   1.096   7.323  1.00  0.00     0.000 C 
HETATM   28  C16 UNL     1       9.860   2.267   8.139  1.00  0.00     0.007 C 
ENDBRANCH   1  23
TORSDOF 6
ENDMDL
MODEL 3
REMARK VINA RESULT:    -6.905      1.892      2.310
REMARK INTER + INTRA:          -9.514
REMARK INTER:                  -8.888
REMARK INTRA:                  -0.627
REMARK UNBOUND:                -0.389
REMARK  6 active torsions:
REMARK  status: ('A' for Active; 'I' for Inactive)
REMARK    1  A    between atoms: C3_3  and  C17_24 
REMARK       I    between atoms: N1_6  and  C5_7 
REMARK    2  A    between atoms: C5_7  and  C6_9 
REMARK    3  A    between atoms: C6_9  and  N2_10 
REMARK    4  A    between atoms: C6_9  and  C11_18 
REMARK       I    between atoms: N2_10  and  C7_11 
REMARK    5  A    between atoms: C7_11  and  C8_13 
REMARK    6  A    between atoms: C17_24  and  O5_26 
ROOT
HETATM    1  C6  UNL     1      12.951   2.869   9.399  1.00  0.00     0.181 C 
ENDROOT
BRANCH   1   2
HETATM    2  C5  UNL     1      11.913   3.281  10.422  1.00  0.00     0.250 C 
HETATM    3  N1  UNL     1      11.461   2.351  11.411  1.00  0.00    -0.280 N 
HETATM    4  C2  UNL     1      10.440   2.368  12.441  1.00  0.00     0.115 A 
HETATM    5  C4  UNL     1      11.834   0.984  11.847  1.00  0.00     0.243 A 
HETATM    6  C1  UNL     1       9.039   2.489  11.829  1.00  0.00     0.034 C 
HETATM    7  C3  UNL     1      10.765   1.032  12.896  1.00  0.00     0.199 A 
HETATM    8  O1  UNL     1      12.689   0.133  11.489  1.00  0.00    -0.272 OA
HETATM    9  O2  UNL     1      11.405   4.434  10.387  1.00  0.00    -0.271 OA
BRANCH   7  10
HETATM   10  C17 UNL     1      11.320   0.978  14.293  1.00  0.00     0.155 C 
HETATM   11  O4  UNL     1      10.599   1.267  15.287  1.00  0.00    -0.649 OA
BRANCH  10  12
HETATM   12  O5  UNL     1      12.636   0.573  14.487  1.00  0.00    -0.776 OA
HETATM   13  H21 UNL     1      13.376   1.254  14.618  1.00  0.00     0.167 HD
ENDBRANCH  10  12
ENDBRANCH   7  10
ENDBRANCH   1   2
BRANCH   1  14
HETATM   14  N2  UNL     1      14.273   2.722  10.023  1.00  0.00    -0.342 N 
HETATM   15  C7  UNL     1      15.183   1.675   9.642  1.00  0.00     0.271 C 
HETATM   16  O3  UNL     1      14.778   0.726   8.917  1.00  0.00    -0.266 OA
HETATM   17  H7  UNL     1      14.570   3.404  10.756  1.00  0.00     0.163 HD
BRANCH  15  18
HETATM   18  C8  UNL     1      16.590   1.674  10.090  1.00  0.00     0.131 A 
HETATM   19  C9  UNL     1      17.255   2.791  10.599  1.00  0.00     0.088 A 
HETATM   20  S1  UNL     1      18.831   2.329  10.951  1.00  0.00    -0.092 SA
HETATM   21  C10 UNL     1      18.614   0.744  10.447  1.00  0.00     0.166 A 
HETATM   22  N3  UNL     1      17.353   0.548  10.007  1.00  0.00    -0.248 NA
ENDBRANCH  15  18
ENDBRANCH   1  14
BRANCH   1  23
HETATM   23  C11 UNL     1      13.027   3.845   8.190  1.00  0.00     0.018 C 
HETATM   24  C12 UNL     1      13.120   3.115   6.820  1.00  0.00     0.007 C 
HETATM   25  C13 UNL     1      13.755   3.976   5.709  1.00  0.00     0.000 C 
HETATM   26  C14 UNL     1      13.487   5.467   5.923  1.00  0.00     0.000 C 
HETATM   27  C15 UNL     1      14.086   5.970   7.252  1.00  0.00     0.000 C 
HETATM   28  C16 UNL     1      14.156   4.885   8.346  1.00  0.00     0.007 C 
ENDBRANCH   1  23
TORSDOF 6
ENDMDL
MODEL 4
REMARK VINA RESULT:    -6.841      3.828      7.455
REMARK INTER + INTRA:          -9.429
REMARK INTER:                  -8.958
REMARK INTRA:                  -0.471
REMARK UNBOUND:                -0.389
REMARK  6 active torsions:
REMARK  status: ('A' for Active; 'I' for Inactive)
REMARK    1  A    between atoms: C3_3  and  C17_24 
REMARK       I    between atoms: N1_6  and  C5_7 
REMARK    2  A    between atoms: C5_7  and  C6_9 
REMARK    3  A    between atoms: C6_9  and  N2_10 
REMARK    4  A    between atoms: C6_9  and  C11_18 
REMARK       I    between atoms: N2_10  and  C7_11 
REMARK    5  A    between atoms: C7_11  and  C8_13 
REMARK    6  A    between atoms: C17_24  and  O5_26 
ROOT
HETATM    1  C6  UNL     1      10.540   2.564   9.307  1.00  0.00     0.181 C 
ENDROOT
BRANCH   1   2
HETATM    2  C5  UNL     1      11.806   3.294   8.907  1.00  0.00     0.250 C 
HETATM    3  N1  UNL     1      13.088   2.774   9.270  1.00  0.00    -0.280 N 
HETATM    4  C2  UNL     1      14.455   3.247   9.152  1.00  0.00     0.115 A 
HETATM    5  C4  UNL     1      13.604   1.533   9.896  1.00  0.00     0.243 A 
HETATM    6  C1  UNL     1      14.673   4.522   9.975  1.00  0.00     0.034 C 
HETATM    7  C3  UNL     1      15.003   2.055   9.765  1.00  0.00     0.199 A 
HETATM    8  O1  UNL     1      13.089   0.480  10.352  1.00  0.00    -0.272 OA
HETATM    9  O2  UNL     1      11.742   4.389   8.287  1.00  0.00    -0.271 OA
BRANCH   7  10
HETATM   10  C17 UNL     1      15.848   1.222   8.840  1.00  0.00     0.155 C 
HETATM   11  O4  UNL     1      17.098   1.384   8.783  1.00  0.00    -0.649 OA
BRANCH  10  12
HETATM   12  O5  UNL     1      15.242   0.240   8.063  1.00  0.00    -0.776 OA
HETATM   13  H21 UNL     1      15.799  -0.412   7.523  1.00  0.00     0.167 HD
ENDBRANCH  10  12
ENDBRANCH   7  10
ENDBRANCH   1   2
BRANCH   1  14
HETATM   14  N2  UNL     1       9.496   2.726   8.286  1.00  0.00    -0.342 N 
HETATM   15  C7  UNL     1       9.158   1.672   7.368  1.00  0.00     0.271 C 
HETATM   16  O3  UNL     1       9.904   0.659   7.275  1.00  0.00    -0.266 OA
HETATM   17  H7  UNL     1       8.972   3.627   8.232  1.00  0.00     0.163 HD
BRANCH  15  18
HETATM   18  C8  UNL     1       7.957   1.748   6.513  1.00  0.00     0.131 A 
HETATM   19  C9  UNL     1       7.942   1.454   5.148  1.00  0.00     0.088 A 
HETATM   20  S1  UNL     1       6.376   1.701   4.591  1.00  0.00    -0.092 SA
HETATM   21  C10 UNL     1       5.783   2.171   6.088  1.00  0.00     0.166 A 
HETATM   22  N3  UNL     1       6.758   2.148   7.021  1.00  0.00    -0.248 NA
ENDBRANCH  15  18
ENDBRANCH   1  14
BRANCH   1  23
HETATM   23  C11 UNL     1      10.009   2.998  10.702  1.00  0.00     0.018 C 
HETATM   24  C12 UNL     1      10.490   2.073  11.855  1.00  0.00     0.007 C 
HETATM   25  C13 UNL     1       9.571   2.107  13.093  1.00  0.00     0.000 C 
HETATM   26  C14 UNL     1       8.879   3.463  13.250  1.00  0.00     0.000 C 
HETATM   27  C15 UNL     1       7.983   3.791  12.040  1.00  0.00     0.000 C 
HETATM   28  C16 UNL     1       8.474   3.160  10.721  1.00  0.00     0.007 C 
ENDBRANCH   1  23
TORSDOF 6
ENDMDL
MODEL 5
REMARK VINA RESULT:    -6.721      2.517      5.436
REMARK INTER + INTRA:          -9.270
REMARK INTER:                  -8.816
REMARK INTRA:                  -0.455
REMARK UNBOUND:                -0.389
REMARK  6 active torsions:
REMARK  status: ('A' for Active; 'I' for Inactive)
REMARK    1  A    between atoms: C3_3  and  C17_24 
REMARK       I    between atoms: N1_6  and  C5_7 
REMARK    2  A    between atoms: C5_7  and  C6_9 
REMARK    3  A    between atoms: C6_9  and  N2_10 
REMARK    4  A    between atoms: C6_9  and  C11_18 
REMARK       I    between atoms: N2_10  and  C7_11 
REMARK    5  A    between atoms: C7_11  and  C8_13 
REMARK    6  A    between atoms: C17_24  and  O5_26 
ROOT
HETATM    1  C6  UNL     1      12.536   1.535  10.973  1.00  0.00     0.181 C 
ENDROOT
BRANCH   1   2
HETATM    2  C5  UNL     1      11.857   1.098   9.692  1.00  0.00     0.250 C 
HETATM    3  N1  UNL     1      11.242   2.061   8.832  1.00  0.00    -0.280 N 
HETATM    4  C2  UNL     1      10.439   1.992   7.625  1.00  0.00     0.115 A 
HETATM    5  C4  UNL     1      11.161   3.541   8.763  1.00  0.00     0.243 A 
HETATM    6  C1  UNL     1       9.103   1.286   7.888  1.00  0.00     0.034 C 
HETATM    7  C3  UNL     1      10.328   3.433   7.522  1.00  0.00     0.199 A 
HETATM    8  O1  UNL     1      11.603   4.494   9.456  1.00  0.00    -0.272 OA
HETATM    9  O2  UNL     1      11.790  -0.123   9.390  1.00  0.00    -0.271 OA
BRANCH   7  10
HETATM   10  C17 UNL     1      11.010   4.015   6.314  1.00  0.00     0.155 C 
HETATM   11  O4  UNL     1      10.388   4.155   5.225  1.00  0.00    -0.649 OA
BRANCH  10  12
HETATM   12  O5  UNL     1      12.332   4.434   6.414  1.00  0.00    -0.776 OA
HETATM   13  H21 UNL     1      13.083   3.761   6.516  1.00  0.00     0.167 HD
ENDBRANCH  10  12
ENDBRANCH   7  10
ENDBRANCH   1   2
BRANCH   1  14
HETATM   14  N2  UNL     1      13.965   1.195  10.952  1.00  0.00    -0.342 N 
HETATM   15  C7  UNL     1      14.933   2.015  10.274  1.00  0.00     0.271 C 
HETATM   16  O3  UNL     1      14.546   2.927   9.495  1.00  0.00    -0.266 OA
HETATM   17  H7  UNL     1      14.293   0.341  11.456  1.00  0.00     0.163 HD
BRANCH  15  18
HETATM   18  C8  UNL     1      16.384   1.807  10.457  1.00  0.00     0.131 A 
HETATM   19  C9  UNL     1      17.241   2.730  11.058  1.00  0.00     0.088 A 
HETATM   20  S1  UNL     1      18.791   2.083  11.024  1.00  0.00    -0.092 SA
HETATM   21  C10 UNL     1      18.321   0.670  10.252  1.00  0.00     0.166 A 
HETATM   22  N3  UNL     1      16.993   0.673  10.010  1.00  0.00    -0.248 NA
ENDBRANCH  15  18
ENDBRANCH   1  14
BRANCH   1  23
HETATM   23  C11 UNL     1      11.857   0.952  12.245  1.00  0.00     0.018 C 
HETATM   24  C12 UNL     1      10.618   1.770  12.706  1.00  0.00     0.007 C 
HETATM   25  C13 UNL     1      10.288   1.591  14.202  1.00  0.00     0.000 C 
HETATM   26  C14 UNL     1      10.701   0.209  14.714  1.00  0.00     0.000 C 
HETATM   27  C15 UNL     1      12.220  -0.020  14.578  1.00  0.00     0.000 C 
HETATM   28  C16 UNL     1      12.856   0.751  13.403  1.00  0.00     0.007 C 
ENDBRANCH   1  23
TORSDOF 6
ENDMDL
MODEL 6
REMARK VINA RESULT:    -6.389      2.617      5.809
REMARK INTER + INTRA:          -8.832
REMARK INTER:                  -8.583
REMARK INTRA:                  -0.249
REMARK UNBOUND:                -0.389
REMARK  6 active torsions:
REMARK  status: ('A' for Active; 'I' for Inactive)
REMARK    1  A    between atoms: C3_3  and  C17_24 
REMARK       I    between atoms: N1_6  and  C5_7 
REMARK    2  A    between atoms: C5_7  and  C6_9 
REMARK    3  A    between atoms: C6_9  and  N2_10 
REMARK    4  A    between atoms: C6_9  and  C11_18 
REMARK       I    between atoms: N2_10  and  C7_11 
REMARK    5  A    between atoms: C7_11  and  C8_13 
REMARK    6  A    between atoms: C17_24  and  O5_26 
ROOT
HETATM    1  C6  UNL     1      11.855   2.480   9.799  1.00  0.00     0.181 C 
ENDROOT
BRANCH   1   2
HETATM    2  C5  UNL     1      11.434   1.242   9.036  1.00  0.00     0.250 C 
HETATM    3  N1  UNL     1      11.028   1.336   7.668  1.00  0.00    -0.280 N 
HETATM    4  C2  UNL     1      10.481   0.408   6.696  1.00  0.00     0.115 A 
HETATM    5  C4  UNL     1      11.002   2.393   6.627  1.00  0.00     0.243 A 
HETATM    6  C1  UNL     1       9.101  -0.100   7.132  1.00  0.00     0.034 C 
HETATM    7  C3  UNL     1      10.431   1.410   5.650  1.00  0.00     0.199 A 
HETATM    8  O1  UNL     1      11.323   3.608   6.579  1.00  0.00    -0.272 OA
HETATM    9  O2  UNL     1      11.396   0.121   9.610  1.00  0.00    -0.271 OA
BRANCH   7  10
HETATM   10  C17 UNL     1      11.355   1.137   4.495  1.00  0.00     0.155 C 
HETATM   11  O4  UNL     1      10.948   1.235   3.305  1.00  0.00    -0.649 OA
BRANCH  10  12
HETATM   12  O5  UNL     1      12.681   0.804   4.748  1.00  0.00    -0.776 OA
HETATM   13  H21 UNL     1      12.935  -0.133   5.040  1.00  0.00     0.167 HD
ENDBRANCH  10  12
ENDBRANCH   7  10
ENDBRANCH   1   2
BRANCH   1  14
HETATM   14  N2  UNL     1      13.207   2.321  10.353  1.00  0.00    -0.342 N 
HETATM   15  C7  UNL     1      14.386   2.494   9.547  1.00  0.00     0.271 C 
HETATM   16  O3  UNL     1      14.281   2.571   8.293  1.00  0.00    -0.266 OA
HETATM   17  H7  UNL     1      13.319   2.089  11.365  1.00  0.00     0.163 HD
BRANCH  15  18
HETATM   18  C8  UNL     1      15.730   2.573  10.152  1.00  0.00     0.131 A 
HETATM   19  C9  UNL     1      16.475   3.748  10.265  1.00  0.00     0.088 A 
HETATM   20  S1  UNL     1      17.939   3.357  10.990  1.00  0.00    -0.092 SA
HETATM   21  C10 UNL     1      17.577   1.724  11.130  1.00  0.00     0.166 A 
HETATM   22  N3  UNL     1      16.352   1.459  10.630  1.00  0.00    -0.248 NA
ENDBRANCH  15  18
ENDBRANCH   1  14
BRANCH   1  23
HETATM   23  C11 UNL     1      10.851   2.868  10.921  1.00  0.00     0.018 C 
HETATM   24  C12 UNL     1      11.012   2.011  12.208  1.00  0.00     0.007 C 
HETATM   25  C13 UNL     1       9.735   1.958  13.072  1.00  0.00     0.000 C 
HETATM   26  C14 UNL     1       8.900   3.233  12.932  1.00  0.00     0.000 C 
HETATM   27  C15 UNL     1       8.429   3.451  11.481  1.00  0.00     0.000 C 
HETATM   28  C16 UNL     1       9.389   2.863  10.427  1.00  0.00     0.007 C 
ENDBRANCH   1  23
TORSDOF 6
ENDMDL
MODEL 7
REMARK VINA RESULT:    -6.179      3.188      5.624
REMARK INTER + INTRA:          -8.554
REMARK INTER:                  -8.120
REMARK INTRA:                  -0.434
REMARK UNBOUND:                -0.389
REMARK  6 active torsions:
REMARK  status: ('A' for Active; 'I' for Inactive)
REMARK    1  A    between atoms: C3_3  and  C17_24 
REMARK       I    between atoms: N1_6  and  C5_7 
REMARK    2  A    between atoms: C5_7  and  C6_9 
REMARK    3  A    between atoms: C6_9  and  N2_10 
REMARK    4  A    between atoms: C6_9  and  C11_18 
REMARK       I    between atoms: N2_10  and  C7_11 
REMARK    5  A    between atoms: C7_11  and  C8_13 
REMARK    6  A    between atoms: C17_24  and  O5_26 
ROOT
HETATM    1  C6  UNL     1      12.567   1.654   8.903  1.00  0.00     0.181 C 
ENDROOT
BRANCH   1   2
HETATM    2  C5  UNL     1      11.734   1.102  10.041  1.00  0.00     0.250 C 
HETATM    3  N1  UNL     1      10.930   1.975  10.840  1.00  0.00    -0.280 N 
HETATM    4  C2  UNL     1      10.119   1.814  12.032  1.00  0.00     0.115 A 
HETATM    5  C4  UNL     1      10.542   3.406  10.807  1.00  0.00     0.243 A 
HETATM    6  C1  UNL     1      10.978   1.408  13.236  1.00  0.00     0.034 C 
HETATM    7  C3  UNL     1       9.719   3.206  12.043  1.00  0.00     0.199 A 
HETATM    8  O1  UNL     1      10.796   4.384  10.057  1.00  0.00    -0.272 OA
HETATM    9  O2  UNL     1      11.773  -0.125  10.324  1.00  0.00    -0.271 OA
BRANCH   7  10
HETATM   10  C17 UNL     1       8.250   3.424  11.804  1.00  0.00     0.155 C 
HETATM   11  O4  UNL     1       7.487   3.778  12.744  1.00  0.00    -0.649 OA
BRANCH  10  12
HETATM   12  O5  UNL     1       7.738   3.264  10.520  1.00  0.00    -0.776 OA
HETATM   13  H21 UNL     1       7.414   4.062   9.987  1.00  0.00     0.167 HD
ENDBRANCH  10  12
ENDBRANCH   7  10
ENDBRANCH   1   2
BRANCH   1  14
HETATM   14  N2  UNL     1      12.135   1.091   7.616  1.00  0.00    -0.342 N 
HETATM   15  C7  UNL     1      11.080   1.685   6.840  1.00  0.00     0.271 C 
HETATM   16  O3  UNL     1      10.353   2.578   7.353  1.00  0.00    -0.266 OA
HETATM   17  H7  UNL     1      12.616   0.242   7.244  1.00  0.00     0.163 HD
BRANCH  15  18
HETATM   18  C8  UNL     1      10.815   1.267   5.449  1.00  0.00     0.131 A 
HETATM   19  C9  UNL     1       9.881   1.875   4.608  1.00  0.00     0.088 A 
HETATM   20  S1  UNL     1       9.906   1.056   3.142  1.00  0.00    -0.092 SA
HETATM   21  C10 UNL     1      11.088  -0.031   3.625  1.00  0.00     0.166 A 
HETATM   22  N3  UNL     1      11.474   0.211   4.896  1.00  0.00    -0.248 NA
ENDBRANCH  15  18
ENDBRANCH   1  14
BRANCH   1  23
HETATM   23  C11 UNL     1      14.092   1.431   9.109  1.00  0.00     0.018 C 
HETATM   24  C12 UNL     1      14.569   1.762  10.551  1.00  0.00     0.007 C 
HETATM   25  C13 UNL     1      16.070   2.106  10.637  1.00  0.00     0.000 C 
HETATM   26  C14 UNL     1      16.881   1.382   9.560  1.00  0.00     0.000 C 
HETATM   27  C15 UNL     1      16.429   1.780   8.141  1.00  0.00     0.000 C 
HETATM   28  C16 UNL     1      14.941   2.176   8.056  1.00  0.00     0.007 C 
ENDBRANCH   1  23
TORSDOF 6
ENDMDL
MODEL 8
REMARK VINA RESULT:    -6.012      2.925      3.542
REMARK INTER + INTRA:          -8.334
REMARK INTER:                  -7.872
REMARK INTRA:                  -0.461
REMARK UNBOUND:                -0.389
REMARK  6 active torsions:
REMARK  status: ('A' for Active; 'I' for Inactive)
REMARK    1  A    between atoms: C3_3  and  C17_24 
REMARK       I    between atoms: N1_6  and  C5_7 
REMARK    2  A    between atoms: C5_7  and  C6_9 
REMARK    3  A    between atoms: C6_9  and  N2_10 
REMARK    4  A    between atoms: C6_9  and  C11_18 
REMARK       I    between atoms: N2_10  and  C7_11 
REMARK    5  A    between atoms: C7_11  and  C8_13 
REMARK    6  A    between atoms: C17_24  and  O5_26 
ROOT
HETATM    1  C6  UNL     1      11.864   2.939   8.920  1.00  0.00     0.181 C 
ENDROOT
BRANCH   1   2
HETATM    2  C5  UNL     1      11.344   3.210  10.317  1.00  0.00     0.250 C 
HETATM    3  N1  UNL     1      11.361   2.180  11.310  1.00  0.00    -0.280 N 
HETATM    4  C2  UNL     1      10.865   2.059  12.668  1.00  0.00     0.115 A 
HETATM    5  C4  UNL     1      11.902   0.803  11.417  1.00  0.00     0.243 A 
HETATM    6  C1  UNL     1       9.335   2.155  12.709  1.00  0.00     0.034 C 
HETATM    7  C3  UNL     1      11.370   0.709  12.815  1.00  0.00     0.199 A 
HETATM    8  O1  UNL     1      12.540   0.031  10.656  1.00  0.00    -0.272 OA
HETATM    9  O2  UNL     1      10.853   4.333  10.608  1.00  0.00    -0.271 OA
BRANCH   7  10
HETATM   10  C17 UNL     1      12.460   0.571  13.843  1.00  0.00     0.155 C 
HETATM   11  O4  UNL     1      12.192   0.241  15.030  1.00  0.00    -0.649 OA
BRANCH  10  12
HETATM   12  O5  UNL     1      13.782   0.780  13.465  1.00  0.00    -0.776 OA
HETATM   13  H21 UNL     1      14.196   1.704  13.511  1.00  0.00     0.167 HD
ENDBRANCH  10  12
ENDBRANCH   7  10
ENDBRANCH   1   2
BRANCH   1  14
HETATM   14  N2  UNL     1      12.422   4.159   8.322  1.00  0.00    -0.342 N 
HETATM   15  C7  UNL     1      13.810   4.512   8.465  1.00  0.00     0.271 C 
HETATM   16  O3  UNL     1      14.530   3.893   9.294  1.00  0.00    -0.266 OA
HETATM   17  H7  UNL     1      11.799   4.784   7.763  1.00  0.00     0.163 HD
BRANCH  15  18
HETATM   18  C8  UNL     1      14.416   5.597   7.669  1.00  0.00     0.131 A 
HETATM   19  C9  UNL     1      13.996   6.928   7.704  1.00  0.00     0.088 A 
HETATM   20  S1  UNL     1      14.952   7.792   6.626  1.00  0.00    -0.092 SA
HETATM   21  C10 UNL     1      15.853   6.457   6.158  1.00  0.00     0.166 A 
HETATM   22  N3  UNL     1      15.441   5.347   6.807  1.00  0.00    -0.248 NA
ENDBRANCH  15  18
ENDBRANCH   1  14
BRANCH   1  23
HETATM   23  C11 UNL     1      10.786   2.319   7.986  1.00  0.00     0.018 C 
HETATM   24  C12 UNL     1      11.298   1.079   7.201  1.00  0.00     0.007 C 
HETATM   25  C13 UNL     1      10.510   0.807   5.903  1.00  0.00     0.000 C 
HETATM   26  C14 UNL     1       9.056   1.270   6.014  1.00  0.00     0.000 C 
HETATM   27  C15 UNL     1       8.957   2.788   6.266  1.00  0.00     0.000 C 
HETATM   28  C16 UNL     1      10.164   3.364   7.035  1.00  0.00     0.007 C 
ENDBRANCH   1  23
TORSDOF 6
ENDMDL
MODEL 9
REMARK VINA RESULT:    -5.893      3.052      6.246
REMARK INTER + INTRA:          -8.176
REMARK INTER:                  -7.787
REMARK INTRA:                  -0.389
REMARK UNBOUND:                -0.389
REMARK  6 active torsions:
REMARK  status: ('A' for Active; 'I' for Inactive)
REMARK    1  A    between atoms: C3_3  and  C17_24 
REMARK       I    between atoms: N1_6  and  C5_7 
REMARK    2  A    between atoms: C5_7  and  C6_9 
REMARK    3  A    between atoms: C6_9  and  N2_10 
REMARK    4  A    between atoms: C6_9  and  C11_18 
REMARK       I    between atoms: N2_10  and  C7_11 
REMARK    5  A    between atoms: C7_11  and  C8_13 
REMARK    6  A    between atoms: C17_24  and  O5_26 
ROOT
HETATM    1  C6  UNL     1      13.883   2.008   9.573  1.00  0.00     0.181 C 
ENDROOT
BRANCH   1   2
HETATM    2  C5  UNL     1      13.100   2.466   8.361  1.00  0.00     0.250 C 
HETATM    3  N1  UNL     1      12.388   3.707   8.384  1.00  0.00    -0.280 N 
HETATM    4  C2  UNL     1      11.481   4.383   7.476  1.00  0.00     0.115 A 
HETATM    5  C4  UNL     1      12.270   4.859   9.311  1.00  0.00     0.243 A 
HETATM    6  C1  UNL     1      10.190   3.579   7.282  1.00  0.00     0.034 C 
HETATM    7  C3  UNL     1      11.330   5.527   8.353  1.00  0.00     0.199 A 
HETATM    8  O1  UNL     1      12.753   5.156  10.433  1.00  0.00    -0.272 OA
HETATM    9  O2  UNL     1      13.031   1.740   7.333  1.00  0.00    -0.271 OA
BRANCH   7  10
HETATM   10  C17 UNL     1      11.886   6.807   7.793  1.00  0.00     0.155 C 
HETATM   11  O4  UNL     1      11.746   7.898   8.410  1.00  0.00    -0.649 OA
BRANCH  10  12
HETATM   12  O5  UNL     1      12.591   6.776   6.594  1.00  0.00    -0.776 OA
HETATM   13  H21 UNL     1      13.486   6.306   6.530  1.00  0.00     0.167 HD
ENDBRANCH  10  12
ENDBRANCH   7  10
ENDBRANCH   1   2
BRANCH   1  14
HETATM   14  N2  UNL     1      13.056   2.071  10.787  1.00  0.00    -0.342 N 
HETATM   15  C7  UNL     1      12.297   0.942  11.252  1.00  0.00     0.271 C 
HETATM   16  O3  UNL     1      12.151  -0.064  10.506  1.00  0.00    -0.266 OA
HETATM   17  H7  UNL     1      13.028   2.958  11.338  1.00  0.00     0.163 HD
BRANCH  15  18
HETATM   18  C8  UNL     1      11.668   0.931  12.588  1.00  0.00     0.131 A 
HETATM   19  C9  UNL     1      12.276   0.429  13.740  1.00  0.00     0.088 A 
HETATM   20  S1  UNL     1      11.187   0.602  15.007  1.00  0.00    -0.092 SA
HETATM   21  C10 UNL     1       9.995   1.299  14.054  1.00  0.00     0.166 A 
HETATM   22  N3  UNL     1      10.405   1.405  12.773  1.00  0.00    -0.248 NA
ENDBRANCH  15  18
ENDBRANCH   1  14
BRANCH   1  23
HETATM   23  C11 UNL     1      15.204   2.803   9.773  1.00  0.00     0.018 C 
HETATM   24  C12 UNL     1      15.979   3.044   8.447  1.00  0.00     0.007 C 
HETATM   25  C13 UNL     1      17.487   3.290   8.655  1.00  0.00     0.000 C 
HETATM   26  C14 UNL     1      17.774   3.954  10.004  1.00  0.00     0.000 C 
HETATM   27  C15 UNL     1      17.316   3.073  11.183  1.00  0.00     0.000 C 
HETATM   28  C16 UNL     1      16.115   2.166  10.844  1.00  0.00     0.007 C 
ENDBRANCH   1  23
TORSDOF 6
ENDMDL
