MODEL 1
REMARK VINA RESULT:    -6.656      0.000      0.000
REMARK INTER + INTRA:          -8.095
REMARK INTER:                  -8.012
REMARK INTRA:                  -0.084
REMARK UNBOUND:                -0.272
REMARK  3 active torsions:
REMARK  status: ('A' for Active; 'I' for Inactive)
REMARK    1  A    between atoms: C5_9  and  N2_10 
REMARK       I    between atoms: N2_10  and  C6_11 
REMARK    2  A    between atoms: C6_11  and  C7_13 
REMARK    3  A    between atoms: N3_15  and  C9_16 
ROOT
HETATM    1  N2  UNL     1      14.870   1.984   7.340  1.00  0.00    -0.343 N 
HETATM    2  C6  UNL     1      15.288   1.429   8.595  1.00  0.00     0.262 C 
HETATM    3  O3  UNL     1      16.493   1.112   8.786  1.00  0.00    -0.267 OA
HETATM    4  H4  UNL     1      13.879   2.306   7.246  1.00  0.00     0.163 HD
ENDROOT
BRANCH   1   5
HETATM    5  C5  UNL     1      15.819   2.309   6.267  1.00  0.00     0.185 C 
HETATM    6  C4  UNL     1      15.980   1.128   5.333  1.00  0.00     0.232 C 
HETATM    7  N1  UNL     1      16.647   1.356   4.106  1.00  0.00    -0.151 NA
HETATM    8  O2  UNL     1      15.596  -0.030   5.643  1.00  0.00    -0.277 OA
HETATM    9  C1  UNL     1      17.871   2.111   3.922  1.00  0.00     0.282 C 
HETATM   10  C3  UNL     1      16.111   2.132   2.970  1.00  0.00     0.227 C 
HETATM   11  F1  UNL     1      18.755   1.422   3.103  1.00  0.00    -0.230 F 
HETATM   12  C2  UNL     1      17.171   3.142   3.220  1.00  0.00     0.184 C 
HETATM   13  S2  UNL     1      16.597   4.454   4.395  1.00  0.00    -0.144 SA
HETATM   14  C15 UNL     1      15.368   3.621   5.541  1.00  0.00     0.075 C 
HETATM   15  C16 UNL     1      13.971   3.518   4.910  1.00  0.00     0.024 C 
HETATM   16  O1  UNL     1      15.137   2.021   2.181  1.00  0.00    -0.278 OA
ENDBRANCH   1   5
BRANCH   2  17
HETATM   17  C7  UNL     1      14.316   1.228   9.673  1.00  0.00     0.106 A 
HETATM   18  C8  UNL     1      14.316   1.469  11.082  1.00  0.00     0.131 A 
HETATM   19  N3  UNL     1      13.032   1.001  11.325  1.00  0.00    -0.291 N 
HETATM   20  S1  UNL     1      12.795   0.635   9.739  1.00  0.00    -0.001 SA
BRANCH  19  21
HETATM   21  C9  UNL     1      12.223   0.881  12.503  1.00  0.00     0.045 A 
HETATM   22  C10 UNL     1      12.660   0.101  13.586  1.00  0.00     0.030 A 
HETATM   23  C11 UNL     1      11.871  -0.014  14.734  1.00  0.00     0.002 A 
HETATM   24  C12 UNL     1      10.642   0.647  14.809  1.00  0.00     0.000 A 
HETATM   25  C13 UNL     1      10.201   1.425  13.736  1.00  0.00     0.002 A 
HETATM   26  C14 UNL     1      10.988   1.543  12.586  1.00  0.00     0.030 A 
ENDBRANCH  19  21
ENDBRANCH   2  17
TORSDOF 3
ENDMDL
MODEL 2
REMARK VINA RESULT:    -6.444      4.647      6.259
REMARK INTER + INTRA:          -7.846
REMARK INTER:                  -7.567
REMARK INTRA:                  -0.279
REMARK UNBOUND:                -0.272
REMARK  3 active torsions:
REMARK  status: ('A' for Active; 'I' for Inactive)
REMARK    1  A    between atoms: C5_9  and  N2_10 
REMARK       I    between atoms: N2_10  and  C6_11 
REMARK    2  A    between atoms: C6_11  and  C7_13 
REMARK    3  A    between atoms: N3_15  and  C9_16 
ROOT
HETATM    1  N2  UNL     1      14.020   2.446   9.047  1.00  0.00    -0.343 N 
HETATM    2  C6  UNL     1      12.783   2.010   9.630  1.00  0.00     0.262 C 
HETATM    3  O3  UNL     1      12.772   1.430  10.749  1.00  0.00    -0.267 OA
HETATM    4  H4  UNL     1      13.981   2.992   8.155  1.00  0.00     0.163 HD
ENDROOT
BRANCH   1   5
HETATM    5  C5  UNL     1      15.303   2.342   9.752  1.00  0.00     0.185 C 
HETATM    6  C4  UNL     1      16.085   1.147   9.247  1.00  0.00     0.232 C 
HETATM    7  N1  UNL     1      17.445   1.052   9.626  1.00  0.00    -0.151 NA
HETATM    8  O2  UNL     1      15.548   0.233   8.567  1.00  0.00    -0.277 OA
HETATM    9  C1  UNL     1      17.984   1.282  10.951  1.00  0.00     0.282 C 
HETATM   10  C3  UNL     1      18.534   1.921   9.136  1.00  0.00     0.227 C 
HETATM   11  F1  UNL     1      18.874   0.275  11.302  1.00  0.00    -0.230 F 
HETATM   12  C2  UNL     1      18.652   2.469  10.512  1.00  0.00     0.184 C 
HETATM   13  S2  UNL     1      17.567   3.951  10.751  1.00  0.00    -0.144 SA
HETATM   14  C15 UNL     1      16.085   3.694   9.630  1.00  0.00     0.075 C 
HETATM   15  C16 UNL     1      16.384   4.096   8.178  1.00  0.00     0.024 C 
HETATM   16  O1  UNL     1      19.075   2.150   8.024  1.00  0.00    -0.278 OA
ENDBRANCH   1   5
BRANCH   2  17
HETATM   17  C7  UNL     1      11.517   2.239   8.930  1.00  0.00     0.106 A 
HETATM   18  C8  UNL     1      10.842   1.602   7.842  1.00  0.00     0.131 A 
HETATM   19  N3  UNL     1       9.734   2.438   7.829  1.00  0.00    -0.291 N 
HETATM   20  S1  UNL     1      10.311   3.330   9.084  1.00  0.00    -0.001 SA
BRANCH  19  21
HETATM   21  C9  UNL     1       8.546   2.502   7.029  1.00  0.00     0.045 A 
HETATM   22  C10 UNL     1       7.382   1.828   7.435  1.00  0.00     0.030 A 
HETATM   23  C11 UNL     1       6.224   1.891   6.654  1.00  0.00     0.002 A 
HETATM   24  C12 UNL     1       6.219   2.626   5.465  1.00  0.00     0.000 A 
HETATM   25  C13 UNL     1       7.373   3.298   5.056  1.00  0.00     0.002 A 
HETATM   26  C14 UNL     1       8.533   3.238   5.834  1.00  0.00     0.030 A 
ENDBRANCH  19  21
ENDBRANCH   2  17
TORSDOF 3
ENDMDL
MODEL 3
REMARK VINA RESULT:    -6.419      3.428      4.728
REMARK INTER + INTRA:          -7.817
REMARK INTER:                  -7.675
REMARK INTRA:                  -0.142
REMARK UNBOUND:                -0.272
REMARK  3 active torsions:
REMARK  status: ('A' for Active; 'I' for Inactive)
REMARK    1  A    between atoms: C5_9  and  N2_10 
REMARK       I    between atoms: N2_10  and  C6_11 
REMARK    2  A    between atoms: C6_11  and  C7_13 
REMARK    3  A    between atoms: N3_15  and  C9_16 
ROOT
HETATM    1  N2  UNL     1      13.917   2.576  10.255  1.00  0.00    -0.343 N 
HETATM    2  C6  UNL     1      12.773   1.719  10.381  1.00  0.00     0.262 C 
HETATM    3  O3  UNL     1      12.738   0.606   9.791  1.00  0.00    -0.267 OA
HETATM    4  H4  UNL     1      13.942   3.456  10.820  1.00  0.00     0.163 HD
ENDROOT
BRANCH   1   5
HETATM    5  C5  UNL     1      15.131   2.168   9.536  1.00  0.00     0.185 C 
HETATM    6  C4  UNL     1      15.295   2.987   8.273  1.00  0.00     0.232 C 
HETATM    7  N1  UNL     1      16.539   2.910   7.603  1.00  0.00    -0.151 NA
HETATM    8  O2  UNL     1      14.353   3.669   7.788  1.00  0.00    -0.277 OA
HETATM    9  C1  UNL     1      17.293   1.702   7.331  1.00  0.00     0.282 C 
HETATM   10  C3  UNL     1      17.811   3.479   8.090  1.00  0.00     0.227 C 
HETATM   11  F1  UNL     1      17.740   1.687   6.017  1.00  0.00    -0.230 F 
HETATM   12  C2  UNL     1      18.317   2.092   8.251  1.00  0.00     0.184 C 
HETATM   13  S2  UNL     1      17.959   1.428   9.942  1.00  0.00    -0.144 SA
HETATM   14  C15 UNL     1      16.366   2.249  10.495  1.00  0.00     0.075 C 
HETATM   15  C16 UNL     1      16.610   3.659  11.056  1.00  0.00     0.024 C 
HETATM   16  O1  UNL     1      18.249   4.634   8.333  1.00  0.00    -0.278 OA
ENDBRANCH   1   5
BRANCH   2  17
HETATM   17  C7  UNL     1      11.632   2.130  11.202  1.00  0.00     0.106 A 
HETATM   18  C8  UNL     1      10.800   3.292  11.255  1.00  0.00     0.131 A 
HETATM   19  N3  UNL     1       9.989   2.861  12.297  1.00  0.00    -0.291 N 
HETATM   20  S1  UNL     1      10.802   1.438  12.427  1.00  0.00    -0.001 SA
BRANCH  19  21
HETATM   21  C9  UNL     1       8.874   3.435  12.991  1.00  0.00     0.045 A 
HETATM   22  C10 UNL     1       7.728   3.834  12.284  1.00  0.00     0.030 A 
HETATM   23  C11 UNL     1       6.641   4.393  12.962  1.00  0.00     0.002 A 
HETATM   24  C12 UNL     1       6.690   4.557  14.349  1.00  0.00     0.000 A 
HETATM   25  C13 UNL     1       7.826   4.163  15.059  1.00  0.00     0.002 A 
HETATM   26  C14 UNL     1       8.915   3.602  14.384  1.00  0.00     0.030 A 
ENDBRANCH  19  21
ENDBRANCH   2  17
TORSDOF 3
ENDMDL
MODEL 4
REMARK VINA RESULT:    -6.209     14.858     15.749
REMARK INTER + INTRA:          -7.570
REMARK INTER:                  -7.347
REMARK INTRA:                  -0.223
REMARK UNBOUND:                -0.272
REMARK  3 active torsions:
REMARK  status: ('A' for Active; 'I' for Inactive)
REMARK    1  A    between atoms: C5_9  and  N2_10 
REMARK       I    between atoms: N2_10  and  C6_11 
REMARK    2  A    between atoms: C6_11  and  C7_13 
REMARK    3  A    between atoms: N3_15  and  C9_16 
ROOT
HETATM    1  N2  UNL     1      10.158  14.926  12.113  1.00  0.00    -0.343 N 
HETATM    2  C6  UNL     1      11.545  14.948  12.481  1.00  0.00     0.262 C 
HETATM    3  O3  UNL     1      12.428  14.556  11.671  1.00  0.00    -0.267 OA
HETATM    4  H4  UNL     1       9.462  15.331  12.781  1.00  0.00     0.163 HD
ENDROOT
BRANCH   1   5
HETATM    5  C5  UNL     1       9.705  14.555  10.766  1.00  0.00     0.185 C 
HETATM    6  C4  UNL     1       8.328  13.928  10.828  1.00  0.00     0.232 C 
HETATM    7  N1  UNL     1       7.636  13.756   9.606  1.00  0.00    -0.151 NA
HETATM    8  O2  UNL     1       7.827  13.515  11.907  1.00  0.00    -0.277 OA
HETATM    9  C1  UNL     1       8.192  13.245   8.370  1.00  0.00     0.282 C 
HETATM   10  C3  UNL     1       7.062  14.842   8.786  1.00  0.00     0.227 C 
HETATM   11  F1  UNL     1       7.348  12.299   7.805  1.00  0.00    -0.230 F 
HETATM   12  C2  UNL     1       8.071  14.525   7.744  1.00  0.00     0.184 C 
HETATM   13  S2  UNL     1       9.622  15.511   7.975  1.00  0.00    -0.144 SA
HETATM   14  C15 UNL     1       9.780  15.802   9.821  1.00  0.00     0.075 C 
HETATM   15  C16 UNL     1       8.912  16.978  10.296  1.00  0.00     0.024 C 
HETATM   16  O1  UNL     1       6.159  15.705   8.937  1.00  0.00    -0.278 OA
ENDBRANCH   1   5
BRANCH   2  17
HETATM   17  C7  UNL     1      11.950  15.432  13.802  1.00  0.00     0.106 A 
HETATM   18  C8  UNL     1      12.287  14.804  15.042  1.00  0.00     0.131 A 
HETATM   19  N3  UNL     1      12.539  15.971  15.750  1.00  0.00    -0.291 N 
HETATM   20  S1  UNL     1      12.196  16.913  14.447  1.00  0.00    -0.001 SA
BRANCH  19  21
HETATM   21  C9  UNL     1      12.943  16.248  17.097  1.00  0.00     0.045 A 
HETATM   22  C10 UNL     1      14.247  16.694  17.369  1.00  0.00     0.030 A 
HETATM   23  C11 UNL     1      14.639  16.965  18.683  1.00  0.00     0.002 A 
HETATM   24  C12 UNL     1      13.734  16.792  19.734  1.00  0.00     0.000 A 
HETATM   25  C13 UNL     1      12.436  16.349  19.472  1.00  0.00     0.002 A 
HETATM   26  C14 UNL     1      12.040  16.077  18.158  1.00  0.00     0.030 A 
ENDBRANCH  19  21
ENDBRANCH   2  17
TORSDOF 3
ENDMDL
MODEL 5
REMARK VINA RESULT:    -5.995      2.849      3.394
REMARK INTER + INTRA:          -7.319
REMARK INTER:                  -7.061
REMARK INTRA:                  -0.258
REMARK UNBOUND:                -0.272
REMARK  3 active torsions:
REMARK  status: ('A' for Active; 'I' for Inactive)
REMARK    1  A    between atoms: C5_9  and  N2_10 
REMARK       I    between atoms: N2_10  and  C6_11 
REMARK    2  A    between atoms: C6_11  and  C7_13 
REMARK    3  A    between atoms: N3_15  and  C9_16 
ROOT
HETATM    1  N2  UNL     1      15.681   2.848   8.059  1.00  0.00    -0.343 N 
HETATM    2  C6  UNL     1      15.073   1.708   8.684  1.00  0.00     0.262 C 
HETATM    3  O3  UNL     1      15.634   0.580   8.642  1.00  0.00    -0.267 OA
HETATM    4  H4  UNL     1      15.224   3.782   8.181  1.00  0.00     0.163 HD
ENDROOT
BRANCH   1   5
HETATM    5  C5  UNL     1      17.012   2.792   7.442  1.00  0.00     0.185 C 
HETATM    6  C4  UNL     1      16.984   3.435   6.071  1.00  0.00     0.232 C 
HETATM    7  N1  UNL     1      18.228   3.703   5.452  1.00  0.00    -0.151 NA
HETATM    8  O2  UNL     1      15.906   3.675   5.464  1.00  0.00    -0.277 OA
HETATM    9  C1  UNL     1      19.365   2.807   5.389  1.00  0.00     0.282 C 
HETATM   10  C3  UNL     1      19.190   4.740   5.875  1.00  0.00     0.227 C 
HETATM   11  F1  UNL     1      19.890   2.768   4.105  1.00  0.00    -0.230 F 
HETATM   12  C2  UNL     1      20.122   3.650   6.262  1.00  0.00     0.184 C 
HETATM   13  S2  UNL     1      19.884   3.142   8.026  1.00  0.00    -0.144 SA
HETATM   14  C15 UNL     1      18.069   3.428   8.407  1.00  0.00     0.075 C 
HETATM   15  C16 UNL     1      17.777   4.897   8.747  1.00  0.00     0.024 C 
HETATM   16  O1  UNL     1      19.190   5.996   5.946  1.00  0.00    -0.278 OA
ENDBRANCH   1   5
BRANCH   2  17
HETATM   17  C7  UNL     1      13.793   1.846   9.382  1.00  0.00     0.106 A 
HETATM   18  C8  UNL     1      13.076   2.940   9.958  1.00  0.00     0.131 A 
HETATM   19  N3  UNL     1      11.985   2.204  10.399  1.00  0.00    -0.291 N 
HETATM   20  S1  UNL     1      12.613   0.802   9.814  1.00  0.00    -0.001 SA
BRANCH  19  21
HETATM   21  C9  UNL     1      10.777   2.537  11.096  1.00  0.00     0.045 A 
HETATM   22  C10 UNL     1      10.626   2.203  12.452  1.00  0.00     0.030 A 
HETATM   23  C11 UNL     1       9.448   2.528  13.130  1.00  0.00     0.002 A 
HETATM   24  C12 UNL     1       8.414   3.188  12.461  1.00  0.00     0.000 A 
HETATM   25  C13 UNL     1       8.557   3.523  11.113  1.00  0.00     0.002 A 
HETATM   26  C14 UNL     1       9.734   3.200  10.430  1.00  0.00     0.030 A 
ENDBRANCH  19  21
ENDBRANCH   2  17
TORSDOF 3
ENDMDL
MODEL 6
REMARK VINA RESULT:    -5.895      4.803      6.238
REMARK INTER + INTRA:          -7.201
REMARK INTER:                  -6.906
REMARK INTRA:                  -0.295
REMARK UNBOUND:                -0.272
REMARK  3 active torsions:
REMARK  status: ('A' for Active; 'I' for Inactive)
REMARK    1  A    between atoms: C5_9  and  N2_10 
REMARK       I    between atoms: N2_10  and  C6_11 
REMARK    2  A    between atoms: C6_11  and  C7_13 
REMARK    3  A    between atoms: N3_15  and  C9_16 
ROOT
HETATM    1  N2  UNL     1      14.958   2.933   8.849  1.00  0.00    -0.343 N 
HETATM    2  C6  UNL     1      13.911   3.856   9.183  1.00  0.00     0.262 C 
HETATM    3  O3  UNL     1      14.148   4.853   9.917  1.00  0.00    -0.267 OA
HETATM    4  H4  UNL     1      14.741   2.161   8.176  1.00  0.00     0.163 HD
ENDROOT
BRANCH   1   5
HETATM    5  C5  UNL     1      16.355   3.149   9.244  1.00  0.00     0.185 C 
HETATM    6  C4  UNL     1      16.755   2.166  10.324  1.00  0.00     0.232 C 
HETATM    7  N1  UNL     1      18.132   2.059  10.631  1.00  0.00    -0.151 NA
HETATM    8  O2  UNL     1      15.905   1.505  10.978  1.00  0.00    -0.277 OA
HETATM    9  C1  UNL     1      19.059   3.159  10.805  1.00  0.00     0.282 C 
HETATM   10  C3  UNL     1      19.160   1.457   9.758  1.00  0.00     0.227 C 
HETATM   11  F1  UNL     1      19.837   2.971  11.940  1.00  0.00    -0.230 F 
HETATM   12  C2  UNL     1      19.755   2.809   9.605  1.00  0.00     0.184 C 
HETATM   13  S2  UNL     1      19.040   3.709   8.153  1.00  0.00    -0.144 SA
HETATM   14  C15 UNL     1      17.277   3.093   7.979  1.00  0.00     0.075 C 
HETATM   15  C16 UNL     1      17.207   1.751   7.234  1.00  0.00     0.024 C 
HETATM   16  O1  UNL     1      19.388   0.312   9.289  1.00  0.00    -0.278 OA
ENDBRANCH   1   5
BRANCH   2  17
HETATM   17  C7  UNL     1      12.555   3.651   8.670  1.00  0.00     0.106 A 
HETATM   18  C8  UNL     1      11.953   2.715   7.772  1.00  0.00     0.131 A 
HETATM   19  N3  UNL     1      10.665   3.228   7.846  1.00  0.00    -0.291 N 
HETATM   20  S1  UNL     1      11.124   4.405   8.899  1.00  0.00    -0.001 SA
BRANCH  19  21
HETATM   21  C9  UNL     1       9.416   2.871   7.239  1.00  0.00     0.045 A 
HETATM   22  C10 UNL     1       9.114   3.296   5.935  1.00  0.00     0.030 A 
HETATM   23  C11 UNL     1       7.896   2.947   5.345  1.00  0.00     0.002 A 
HETATM   24  C12 UNL     1       6.972   2.171   6.050  1.00  0.00     0.000 A 
HETATM   25  C13 UNL     1       7.265   1.745   7.348  1.00  0.00     0.002 A 
HETATM   26  C14 UNL     1       8.483   2.092   7.942  1.00  0.00     0.030 A 
ENDBRANCH  19  21
ENDBRANCH   2  17
TORSDOF 3
ENDMDL
MODEL 7
REMARK VINA RESULT:    -5.611      7.784      8.814
REMARK INTER + INTRA:          -6.867
REMARK INTER:                  -6.616
REMARK INTRA:                  -0.251
REMARK UNBOUND:                -0.272
REMARK  3 active torsions:
REMARK  status: ('A' for Active; 'I' for Inactive)
REMARK    1  A    between atoms: C5_9  and  N2_10 
REMARK       I    between atoms: N2_10  and  C6_11 
REMARK    2  A    between atoms: C6_11  and  C7_13 
REMARK    3  A    between atoms: N3_15  and  C9_16 
ROOT
HETATM    1  N2  UNL     1      11.352   8.433   8.533  1.00  0.00    -0.343 N 
HETATM    2  C6  UNL     1      11.195   7.128   7.958  1.00  0.00     0.262 C 
HETATM    3  O3  UNL     1      10.834   6.996   6.757  1.00  0.00    -0.267 OA
HETATM    4  H4  UNL     1      11.727   8.504   9.507  1.00  0.00     0.163 HD
ENDROOT
BRANCH   1   5
HETATM    5  C5  UNL     1      11.208   9.664   7.744  1.00  0.00     0.185 C 
HETATM    6  C4  UNL     1      10.557  10.749   8.577  1.00  0.00     0.232 C 
HETATM    7  N1  UNL     1      10.584  12.067   8.064  1.00  0.00    -0.151 NA
HETATM    8  O2  UNL     1       9.958  10.498   9.656  1.00  0.00    -0.277 OA
HETATM    9  C1  UNL     1      10.298  12.462   6.700  1.00  0.00     0.282 C 
HETATM   10  C3  UNL     1      11.783  12.922   7.959  1.00  0.00     0.227 C 
HETATM   11  F1  UNL     1       9.449  13.559   6.672  1.00  0.00    -0.230 F 
HETATM   12  C2  UNL     1      11.665  12.827   6.482  1.00  0.00     0.184 C 
HETATM   13  S2  UNL     1      12.622  11.390   5.813  1.00  0.00    -0.144 SA
HETATM   14  C15 UNL     1      12.598  10.081   7.156  1.00  0.00     0.075 C 
HETATM   15  C16 UNL     1      13.662  10.341   8.233  1.00  0.00     0.024 C 
HETATM   16  O1  UNL     1      12.594  13.443   8.769  1.00  0.00    -0.278 OA
ENDBRANCH   1   5
BRANCH   2  17
HETATM   17  C7  UNL     1      11.459   5.932   8.761  1.00  0.00     0.106 A 
HETATM   18  C8  UNL     1      10.809   4.669   8.924  1.00  0.00     0.131 A 
HETATM   19  N3  UNL     1      11.702   4.147   9.850  1.00  0.00    -0.291 N 
HETATM   20  S1  UNL     1      12.619   5.512   9.832  1.00  0.00    -0.001 SA
BRANCH  19  21
HETATM   21  C9  UNL     1      11.792   2.900  10.551  1.00  0.00     0.045 A 
HETATM   22  C10 UNL     1      10.956   2.643  11.650  1.00  0.00     0.030 A 
HETATM   23  C11 UNL     1      11.045   1.427  12.333  1.00  0.00     0.002 A 
HETATM   24  C12 UNL     1      11.966   0.458  11.923  1.00  0.00     0.000 A 
HETATM   25  C13 UNL     1      12.800   0.707  10.831  1.00  0.00     0.002 A 
HETATM   26  C14 UNL     1      12.715   1.922  10.145  1.00  0.00     0.030 A 
ENDBRANCH  19  21
ENDBRANCH   2  17
TORSDOF 3
ENDMDL
MODEL 8
REMARK VINA RESULT:    -5.504      5.959      7.510
REMARK INTER + INTRA:          -6.741
REMARK INTER:                  -6.469
REMARK INTRA:                  -0.272
REMARK UNBOUND:                -0.272
REMARK  3 active torsions:
REMARK  status: ('A' for Active; 'I' for Inactive)
REMARK    1  A    between atoms: C5_9  and  N2_10 
REMARK       I    between atoms: N2_10  and  C6_11 
REMARK    2  A    between atoms: C6_11  and  C7_13 
REMARK    3  A    between atoms: N3_15  and  C9_16 
ROOT
HETATM    1  N2  UNL     1      10.301   2.334   6.858  1.00  0.00    -0.343 N 
HETATM    2  C6  UNL     1      11.478   1.516   6.788  1.00  0.00     0.262 C 
HETATM    3  O3  UNL     1      11.566   0.592   5.935  1.00  0.00    -0.267 OA
HETATM    4  H4  UNL     1      10.297   3.139   7.526  1.00  0.00     0.163 HD
ENDROOT
BRANCH   1   5
HETATM    5  C5  UNL     1       9.201   2.216   5.893  1.00  0.00     0.185 C 
HETATM    6  C4  UNL     1       7.879   2.539   6.559  1.00  0.00     0.232 C 
HETATM    7  N1  UNL     1       6.757   2.731   5.720  1.00  0.00    -0.151 NA
HETATM    8  O2  UNL     1       7.752   2.579   7.812  1.00  0.00    -0.277 OA
HETATM    9  C1  UNL     1       6.380   1.906   4.590  1.00  0.00     0.282 C 
HETATM   10  C3  UNL     1       6.543   3.886   4.825  1.00  0.00     0.227 C 
HETATM   11  F1  UNL     1       5.024   1.614   4.624  1.00  0.00    -0.230 F 
HETATM   12  C2  UNL     1       6.687   2.961   3.673  1.00  0.00     0.184 C 
HETATM   13  S2  UNL     1       8.447   2.842   3.109  1.00  0.00    -0.144 SA
HETATM   14  C15 UNL     1       9.499   3.105   4.639  1.00  0.00     0.075 C 
HETATM   15  C16 UNL     1       9.665   4.596   4.975  1.00  0.00     0.024 C 
HETATM   16  O1  UNL     1       6.383   5.125   4.975  1.00  0.00    -0.278 OA
ENDBRANCH   1   5
BRANCH   2  17
HETATM   17  C7  UNL     1      12.594   1.750   7.707  1.00  0.00     0.106 A 
HETATM   18  C8  UNL     1      13.946   2.190   7.553  1.00  0.00     0.131 A 
HETATM   19  N3  UNL     1      14.289   2.130   8.896  1.00  0.00    -0.291 N 
HETATM   20  S1  UNL     1      12.788   1.611   9.323  1.00  0.00    -0.001 SA
BRANCH  19  21
HETATM   21  C9  UNL     1      15.488   2.412   9.630  1.00  0.00     0.045 A 
HETATM   22  C10 UNL     1      16.383   1.378   9.950  1.00  0.00     0.030 A 
HETATM   23  C11 UNL     1      17.552   1.654  10.665  1.00  0.00     0.002 A 
HETATM   24  C12 UNL     1      17.836   2.963  11.065  1.00  0.00     0.000 A 
HETATM   25  C13 UNL     1      16.950   3.997  10.750  1.00  0.00     0.002 A 
HETATM   26  C14 UNL     1      15.780   3.724  10.035  1.00  0.00     0.030 A 
ENDBRANCH  19  21
ENDBRANCH   2  17
TORSDOF 3
ENDMDL
MODEL 9
REMARK VINA RESULT:    -5.465      5.526      6.351
REMARK INTER + INTRA:          -6.695
REMARK INTER:                  -6.395
REMARK INTRA:                  -0.301
REMARK UNBOUND:                -0.272
REMARK  3 active torsions:
REMARK  status: ('A' for Active; 'I' for Inactive)
REMARK    1  A    between atoms: C5_9  and  N2_10 
REMARK       I    between atoms: N2_10  and  C6_11 
REMARK    2  A    between atoms: C6_11  and  C7_13 
REMARK    3  A    between atoms: N3_15  and  C9_16 
ROOT
HETATM    1  N2  UNL     1      12.021   6.247   8.420  1.00  0.00    -0.343 N 
HETATM    2  C6  UNL     1      11.249   5.053   8.226  1.00  0.00     0.262 C 
HETATM    3  O3  UNL     1      10.706   4.816   7.113  1.00  0.00    -0.267 OA
HETATM    4  H4  UNL     1      12.519   6.371   9.332  1.00  0.00     0.163 HD
ENDROOT
BRANCH   1   5
HETATM    5  C5  UNL     1      12.307   7.187   7.329  1.00  0.00     0.185 C 
HETATM    6  C4  UNL     1      12.045   8.609   7.779  1.00  0.00     0.232 C 
HETATM    7  N1  UNL     1      12.518   9.652   6.947  1.00  0.00    -0.151 NA
HETATM    8  O2  UNL     1      11.383   8.874   8.817  1.00  0.00    -0.277 OA
HETATM    9  C1  UNL     1      12.400   9.719   5.505  1.00  0.00     0.282 C 
HETATM   10  C3  UNL     1      13.936  10.016   6.751  1.00  0.00     0.227 C 
HETATM   11  F1  UNL     1      11.966  10.975   5.104  1.00  0.00    -0.230 F 
HETATM   12  C2  UNL     1      13.812   9.554   5.345  1.00  0.00     0.184 C 
HETATM   13  S2  UNL     1      14.242   7.761   5.176  1.00  0.00    -0.144 SA
HETATM   14  C15 UNL     1      13.764   6.958   6.803  1.00  0.00     0.075 C 
HETATM   15  C16 UNL     1      14.840   7.157   7.882  1.00  0.00     0.024 C 
HETATM   16  O1  UNL     1      14.863  10.457   7.479  1.00  0.00    -0.278 OA
ENDBRANCH   1   5
BRANCH   2  17
HETATM   17  C7  UNL     1      11.086   4.093   9.320  1.00  0.00     0.106 A 
HETATM   18  C8  UNL     1      11.619   3.978  10.641  1.00  0.00     0.131 A 
HETATM   19  N3  UNL     1      10.959   2.805  10.980  1.00  0.00    -0.291 N 
HETATM   20  S1  UNL     1      10.220   2.721   9.513  1.00  0.00    -0.001 SA
BRANCH  19  21
HETATM   21  C9  UNL     1      10.931   1.983  12.154  1.00  0.00     0.045 A 
HETATM   22  C10 UNL     1      11.899   0.983  12.343  1.00  0.00     0.030 A 
HETATM   23  C11 UNL     1      11.871   0.182  13.488  1.00  0.00     0.002 A 
HETATM   24  C12 UNL     1      10.877   0.374  14.452  1.00  0.00     0.000 A 
HETATM   25  C13 UNL     1       9.911   1.366  14.271  1.00  0.00     0.002 A 
HETATM   26  C14 UNL     1       9.936   2.169  13.127  1.00  0.00     0.030 A 
ENDBRANCH  19  21
ENDBRANCH   2  17
TORSDOF 3
ENDMDL
